version 2
run General-0-20210521-15:11:44-5696
attr configname General
attr datetime 20210521-15:11:44
attr experiment General
attr inifile omnetpp.ini
attr iterationvars ""
attr iterationvarsf ""
attr measurement ""
attr network artery.inet.World
attr processid 5696
attr repetition 0
attr replication #0
attr resultdir results
attr runnumber 0
attr seedset 0
param *.traci.core.version -1
param *.traci.launcher.typename "\"PosixLauncher\""
param *.traci.launcher.sumo "\"sumo-gui\""
param *.traci.launcher.sumocfg "\"exec.sumocfg\""
param *.node[*].wlan[*].typename "\"VanetNic\""
param *.node[*].wlan[*].radio.channelNumber 180
param *.node[*].wlan[*].radio.carrierFrequency "5.9 GHz"
param *.node[*].wlan[*].radio.transmitter.power "200 mW"
param *.node[*].middleware.updateInterval 0.1s
param *.node[*].middleware.datetime "\"2017-06-26 12:00:00\""
param *.node[*].middleware.services "xmldoc(\"services.xml\")"
param *.node[*].middleware.DEN.useCases "xmldoc(\"usecases.xml\")"

vector 0 World.node[0].wlan[0].radio radioMode:vector ETV
attr interpolationmode sample-hold
attr source radioModeChanged
attr title "Radio mode, vector"
vector 1 World.node[0].wlan[0].radio radioChannel:vector ETV
attr interpolationmode sample-hold
attr source radioChannelChanged
attr title "Radio channel, vector"
vector 2 World.node[0].wlan[0].radio receptionState:vector ETV
attr interpolationmode sample-hold
attr source receptionStateChanged
attr title "Radio reception state, vector"
vector 3 World.node[0].wlan[0].mac.dcf.channelAccess.contention state:vector ETV
attr interpolationmode none
attr source stateChanged
attr title "contention state, vector"
vector 4 World.node[0].wlan[0].mac.hcf.edca.edcaf[0].contention state:vector ETV
attr interpolationmode none
attr source stateChanged
attr title "contention state, vector"
vector 5 World.node[0].wlan[0].mac.hcf.edca.edcaf[1].contention state:vector ETV
attr interpolationmode none
attr source stateChanged
attr title "contention state, vector"
vector 6 World.node[0].wlan[0].mac.hcf.edca.edcaf[2].contention state:vector ETV
attr interpolationmode none
attr source stateChanged
attr title "contention state, vector"
vector 7 World.node[0].wlan[0].mac.hcf.edca.edcaf[3].contention state:vector ETV
attr interpolationmode none
attr source stateChanged
attr title "contention state, vector"
vector 8 World.node[0].wlan[0].mac rcvdPkFromHL:vector(packetBytes) ETV
attr interpolationmode none
attr source packetReceivedFromUpper
attr title "packets received from higher layer, vector(packetBytes)"
vector 9 World.node[0].wlan[0].mac sentDownPk:vector(packetBytes) ETV
attr interpolationmode none
attr source packetSentToLower
attr title "packets sent to lower layer, vector(packetBytes)"
vector 10 World.node[0].wlan[0].radio transmissionState:vector ETV
attr interpolationmode sample-hold
attr source transmissionStateChanged
attr title "Radio transmission state, vector"
vector 11 World.node[1].wlan[0].radio radioMode:vector ETV
attr interpolationmode sample-hold
attr source radioModeChanged
attr title "Radio mode, vector"
vector 12 World.node[1].wlan[0].radio radioChannel:vector ETV
attr interpolationmode sample-hold
attr source radioChannelChanged
attr title "Radio channel, vector"
vector 13 World.node[1].wlan[0].radio receptionState:vector ETV
attr interpolationmode sample-hold
attr source receptionStateChanged
attr title "Radio reception state, vector"
vector 14 World.node[1].wlan[0].mac.dcf.channelAccess.contention state:vector ETV
attr interpolationmode none
attr source stateChanged
attr title "contention state, vector"
vector 15 World.node[1].wlan[0].mac.hcf.edca.edcaf[0].contention state:vector ETV
attr interpolationmode none
attr source stateChanged
attr title "contention state, vector"
vector 16 World.node[1].wlan[0].mac.hcf.edca.edcaf[1].contention state:vector ETV
attr interpolationmode none
attr source stateChanged
attr title "contention state, vector"
vector 17 World.node[1].wlan[0].mac.hcf.edca.edcaf[2].contention state:vector ETV
attr interpolationmode none
attr source stateChanged
attr title "contention state, vector"
vector 18 World.node[1].wlan[0].mac.hcf.edca.edcaf[3].contention state:vector ETV
attr interpolationmode none
attr source stateChanged
attr title "contention state, vector"
vector 19 World.node[1].wlan[0].mac rcvdPkFromLL:vector(packetBytes) ETV
attr interpolationmode none
attr source packetReceivedFromLower
attr title "packets received from lower layer, vector(packetBytes)"
vector 20 World.node[1].wlan[0].mac passedUpPk:vector(packetBytes) ETV
attr interpolationmode none
attr source packetSentToUpper
attr title "packets passed to higher layer, vector(packetBytes)"
vector 21 World.node[1].wlan[0].mac rcvdPkFromHL:vector(packetBytes) ETV
attr interpolationmode none
attr source packetReceivedFromUpper
attr title "packets received from higher layer, vector(packetBytes)"
vector 22 World.node[1].wlan[0].mac sentDownPk:vector(packetBytes) ETV
attr interpolationmode none
attr source packetSentToLower
attr title "packets sent to lower layer, vector(packetBytes)"
vector 23 World.node[1].wlan[0].radio transmissionState:vector ETV
attr interpolationmode sample-hold
attr source transmissionStateChanged
attr title "Radio transmission state, vector"
vector 24 World.node[0].wlan[0].mac rcvdPkFromLL:vector(packetBytes) ETV
attr interpolationmode none
attr source packetReceivedFromLower
attr title "packets received from lower layer, vector(packetBytes)"
vector 25 World.node[0].wlan[0].mac passedUpPk:vector(packetBytes) ETV
attr interpolationmode none
attr source packetSentToUpper
attr title "packets passed to higher layer, vector(packetBytes)"
vector 26 World.node[2].wlan[0].radio radioMode:vector ETV
attr interpolationmode sample-hold
attr source radioModeChanged
attr title "Radio mode, vector"
vector 27 World.node[2].wlan[0].radio radioChannel:vector ETV
attr interpolationmode sample-hold
attr source radioChannelChanged
attr title "Radio channel, vector"
vector 28 World.node[2].wlan[0].radio receptionState:vector ETV
attr interpolationmode sample-hold
attr source receptionStateChanged
attr title "Radio reception state, vector"
vector 29 World.node[2].wlan[0].mac.dcf.channelAccess.contention state:vector ETV
attr interpolationmode none
attr source stateChanged
attr title "contention state, vector"
vector 30 World.node[2].wlan[0].mac.hcf.edca.edcaf[0].contention state:vector ETV
attr interpolationmode none
attr source stateChanged
attr title "contention state, vector"
vector 31 World.node[2].wlan[0].mac.hcf.edca.edcaf[1].contention state:vector ETV
attr interpolationmode none
attr source stateChanged
attr title "contention state, vector"
vector 32 World.node[2].wlan[0].mac.hcf.edca.edcaf[2].contention state:vector ETV
attr interpolationmode none
attr source stateChanged
attr title "contention state, vector"
vector 33 World.node[2].wlan[0].mac.hcf.edca.edcaf[3].contention state:vector ETV
attr interpolationmode none
attr source stateChanged
attr title "contention state, vector"
vector 34 World.node[2].wlan[0].mac rcvdPkFromLL:vector(packetBytes) ETV
attr interpolationmode none
attr source packetReceivedFromLower
attr title "packets received from lower layer, vector(packetBytes)"
vector 35 World.node[2].wlan[0].mac passedUpPk:vector(packetBytes) ETV
attr interpolationmode none
attr source packetSentToUpper
attr title "packets passed to higher layer, vector(packetBytes)"
vector 36 World.node[2].wlan[0].mac rcvdPkFromHL:vector(packetBytes) ETV
attr interpolationmode none
attr source packetReceivedFromUpper
attr title "packets received from higher layer, vector(packetBytes)"
vector 37 World.node[2].wlan[0].mac sentDownPk:vector(packetBytes) ETV
attr interpolationmode none
attr source packetSentToLower
attr title "packets sent to lower layer, vector(packetBytes)"
vector 38 World.node[2].wlan[0].radio transmissionState:vector ETV
attr interpolationmode sample-hold
attr source transmissionStateChanged
attr title "Radio transmission state, vector"
vector 39 World.node[3].wlan[0].radio radioMode:vector ETV
attr interpolationmode sample-hold
attr source radioModeChanged
attr title "Radio mode, vector"
vector 40 World.node[3].wlan[0].radio radioChannel:vector ETV
attr interpolationmode sample-hold
attr source radioChannelChanged
attr title "Radio channel, vector"
vector 41 World.node[3].wlan[0].radio receptionState:vector ETV
attr interpolationmode sample-hold
attr source receptionStateChanged
attr title "Radio reception state, vector"
vector 42 World.node[3].wlan[0].mac.dcf.channelAccess.contention state:vector ETV
attr interpolationmode none
attr source stateChanged
attr title "contention state, vector"
vector 43 World.node[3].wlan[0].mac.hcf.edca.edcaf[0].contention state:vector ETV
attr interpolationmode none
attr source stateChanged
attr title "contention state, vector"
vector 44 World.node[3].wlan[0].mac.hcf.edca.edcaf[1].contention state:vector ETV
attr interpolationmode none
attr source stateChanged
attr title "contention state, vector"
vector 45 World.node[3].wlan[0].mac.hcf.edca.edcaf[2].contention state:vector ETV
attr interpolationmode none
attr source stateChanged
attr title "contention state, vector"
vector 46 World.node[3].wlan[0].mac.hcf.edca.edcaf[3].contention state:vector ETV
attr interpolationmode none
attr source stateChanged
attr title "contention state, vector"
vector 47 World.node[3].wlan[0].mac rcvdPkFromLL:vector(packetBytes) ETV
attr interpolationmode none
attr source packetReceivedFromLower
attr title "packets received from lower layer, vector(packetBytes)"
vector 48 World.node[3].wlan[0].mac passedUpPk:vector(packetBytes) ETV
attr interpolationmode none
attr source packetSentToUpper
attr title "packets passed to higher layer, vector(packetBytes)"
vector 49 World.node[3].wlan[0].mac rcvdPkFromHL:vector(packetBytes) ETV
attr interpolationmode none
attr source packetReceivedFromUpper
attr title "packets received from higher layer, vector(packetBytes)"
vector 50 World.node[3].wlan[0].mac sentDownPk:vector(packetBytes) ETV
attr interpolationmode none
attr source packetSentToLower
attr title "packets sent to lower layer, vector(packetBytes)"
vector 51 World.node[3].wlan[0].radio transmissionState:vector ETV
attr interpolationmode sample-hold
attr source transmissionStateChanged
attr title "Radio transmission state, vector"
0	2	1	0
0	2	1	2
0	12	1.171518936497	3
0	15	1.171998936497	2
0	27	1.371518936497	3
0	30	1.371726936497	2
0	42	1.571518936497	3
0	45	1.571726936497	2
0	57	1.771518936497	3
0	60	1.771998936497	2
0	75	2.071518936497	3
0	78	2.071726936497	2
0	92	2.371518936497	3
0	95	2.371998936497	2
0	109	2.671518936497	3
0	112	2.671726936497	2
0	126	2.971518936497	3
0	129	2.971998936497	2
0	140	3.071518936497	3
0	143	3.071726936497	2
0	153	3.171518936497	3
0	156	3.171726936497	2
0	166	3.271518936497	3
0	169	3.271726936497	2
0	179	3.371518936497	3
0	182	3.371726936497	2
0	206	4.071518936497	3
0	210	4.071998936497	2
0	319	4.771518936497	3
0	323	4.771998936497	2
0	366	5.071518936497	3
0	370	5.071726936497	2
0	412	5.371518936497	3
0	416	5.371998936497	2
0	458	5.671518936497	3
0	462	5.671726936497	2
0	504	5.971518936497	3
0	508	5.971998936497	2
0	543	6.071518936497	3
0	547	6.071726936497	2
0	581	6.171518936497	3
0	585	6.171726936497	2
0	619	6.271518936497	3
0	623	6.271726936497	2
0	657	6.371518936497	3
0	661	6.371726936497	2
0	727	7.071518936497	3
0	732	7.071998936497	2
0	883	7.771518936497	3
0	888	7.771998936497	2
0	971	8.071518936497	3
0	976	8.071726936497	2
0	1058	8.371518936497	3
0	1063	8.371998936497	2
0	1145	8.671518936497	3
0	1150	8.671726936497	2
0	1232	8.971518936497	3
0	1237	8.971998936497	2
0	1308	9.071518936497	3
0	1313	9.071726936497	2
0	1383	9.171518936497	3
0	1388	9.171726936497	2
0	1458	9.271518936497	3
0	1463	9.271726936497	2
0	1533	9.371518936497	3
0	1538	9.371726936497	2
0	1652	10.071518936497	3
0	1658	10.071998936497	2
0	1881	10.771518936497	3
0	1887	10.771998936497	2
0	2022	11.071518936497	3
0	2028	11.071726936497	2
0	2162	11.371518936497	3
0	2168	11.371998936497	2
0	2302	11.671518936497	3
0	2308	11.671726936497	2
0	2442	11.971518936497	3
0	2448	11.971998936497	2
0	2567	12.071518936497	3
0	2573	12.071726936497	2
0	2691	12.171518936497	3
0	2697	12.171726936497	2
0	2815	12.271518936497	3
0	2821	12.271726936497	2
0	2939	12.371518936497	3
0	2945	12.371726936497	2
1	2	1	180
2	2	1	1
2	12	1.171518936497	0
2	15	1.171998936497	1
2	27	1.371518936497	0
2	30	1.371726936497	1
2	42	1.571518936497	0
2	45	1.571726936497	1
2	57	1.771518936497	0
2	60	1.771998936497	1
2	75	2.071518936497	0
2	78	2.071726936497	1
2	92	2.371518936497	0
2	95	2.371998936497	1
2	109	2.671518936497	0
2	112	2.671726936497	1
2	126	2.971518936497	0
2	129	2.971998936497	1
2	140	3.071518936497	0
2	143	3.071726936497	1
2	153	3.171518936497	0
2	156	3.171726936497	1
2	166	3.271518936497	0
2	169	3.271726936497	1
2	179	3.371518936497	0
2	182	3.371726936497	1
2	206	4.071518936497	0
2	210	4.071998936497	1
2	228	4.127265675692	3
2	231	4.127745675692	1
2	253	4.327265675692	3
2	256	4.327473675692	1
2	278	4.527265675692	3
2	281	4.527473675692	1
2	303	4.727265675692	3
2	306	4.727745675692	1
2	319	4.771518936497	0
2	323	4.771998936497	1
2	350	5.027265697397	3
2	353	5.027473697397	1
2	366	5.071518936497	0
2	370	5.071726936497	1
2	396	5.327265697397	3
2	399	5.327745697397	1
2	412	5.371518936497	0
2	416	5.371998936497	1
2	442	5.627265697397	3
2	445	5.627473697397	1
2	458	5.671518936497	0
2	462	5.671726936497	1
2	488	5.927265697397	3
2	491	5.927745697397	1
2	504	5.971518936497	0
2	508	5.971998936497	1
2	527	6.027265716296	3
2	530	6.027473716296	1
2	543	6.071518936497	0
2	547	6.071726936497	1
2	565	6.127265716296	3
2	568	6.127473716296	1
2	581	6.171518936497	0
2	585	6.171726936497	1
2	603	6.227265716296	3
2	606	6.227473716296	1
2	619	6.271518936497	0
2	623	6.271726936497	1
2	641	6.327265716296	3
2	644	6.327473716296	1
2	657	6.371518936497	0
2	661	6.371726936497	1
2	706	7.027265732154	3
2	714	7.027745732154	1
2	727	7.071518936497	0
2	732	7.071998936497	1
2	759	7.17991599931	3
2	767	7.18039599931	1
2	794	7.37991599931	3
2	802	7.38012399931	1
2	829	7.57991599931	3
2	837	7.58012399931	1
2	862	7.727265732154	3
2	870	7.727745732154	1
2	883	7.771518936497	0
2	888	7.771998936497	1
2	909	7.77991599931	3
2	917	7.78039599931	1
2	950	8.027265747034	3
2	958	8.027473747034	1
2	971	8.071518936497	0
2	976	8.071726936497	1
2	997	8.079916037021	3
2	1005	8.080124037021	1
2	1037	8.327265747034	3
2	1045	8.327745747034	1
2	1058	8.371518936497	0
2	1063	8.371998936497	1
2	1084	8.379916037021	3
2	1092	8.380396037021	1
2	1124	8.627265747034	3
2	1132	8.627473747034	1
2	1145	8.671518936497	0
2	1150	8.671726936497	1
2	1171	8.679916037021	3
2	1179	8.680124037021	1
2	1211	8.927265747034	3
2	1219	8.927745747034	1
2	1232	8.971518936497	0
2	1237	8.971998936497	1
2	1258	8.979916037021	3
2	1266	8.980396037021	1
2	1287	9.027265761647	3
2	1295	9.027473761647	1
2	1308	9.071518936497	0
2	1313	9.071726936497	1
2	1334	9.079916072914	3
2	1342	9.080124072914	1
2	1362	9.127265761647	3
2	1370	9.127473761647	1
2	1383	9.171518936497	0
2	1388	9.171726936497	1
2	1409	9.179916072914	3
2	1417	9.180124072914	1
2	1437	9.227265761647	3
2	1445	9.227473761647	1
2	1458	9.271518936497	0
2	1463	9.271726936497	1
2	1484	9.279916072914	3
2	1492	9.280124072914	1
2	1512	9.327265761647	3
2	1520	9.327473761647	1
2	1533	9.371518936497	0
2	1538	9.371726936497	1
2	1559	9.379916072914	3
2	1567	9.380124072914	1
2	1625	10.027265768965	3
2	1634	10.027745768965	1
2	1652	10.071518936497	0
2	1658	10.071998936497	1
2	1685	10.079916100053	3
2	1698	10.080396100053	1
2	1723	10.19026012723	3
2	1736	10.19074012723	1
2	1768	10.39026012723	3
2	1781	10.39046812723	1
2	1813	10.59026012723	3
2	1826	10.59046812723	1
2	1854	10.727265768965	3
2	1863	10.727745768965	1
2	1881	10.771518936497	0
2	1887	10.771998936497	1
2	1914	10.779916100053	3
2	1927	10.780396100053	1
2	1944	10.79026012723	3
2	1958	10.79074012723	1
2	1995	11.02726577458	3
2	2004	11.02747377458	1
2	2022	11.071518936497	0
2	2028	11.071726936497	1
2	2055	11.079916122576	3
2	2068	11.080124122576	1
2	2086	11.090260167622	3
2	2099	11.090468167622	1
2	2135	11.32726577458	3
2	2144	11.32774577458	1
2	2162	11.371518936497	0
2	2168	11.371998936497	1
2	2195	11.379916122576	3
2	2208	11.380396122576	1
2	2225	11.390260167622	3
2	2239	11.390740167622	1
2	2275	11.62726577458	3
2	2284	11.62747377458	1
2	2302	11.671518936497	0
2	2308	11.671726936497	1
2	2335	11.679916122576	3
2	2348	11.680124122576	1
2	2366	11.690260167622	3
2	2379	11.690468167622	1
2	2415	11.92726577458	3
2	2424	11.92774577458	1
2	2442	11.971518936497	0
2	2448	11.971998936497	1
2	2475	11.979916122576	3
2	2488	11.980396122576	1
2	2505	11.990260167622	3
2	2519	11.990740167622	1
2	2540	12.027265778914	3
2	2549	12.027473778914	1
2	2567	12.071518936497	0
2	2573	12.071726936497	1
2	2600	12.079916140068	3
2	2613	12.080124140068	1
2	2631	12.090260200916	3
2	2644	12.090468200916	1
2	2664	12.127265778914	3
2	2673	12.127473778914	1
2	2691	12.171518936497	0
2	2697	12.171726936497	1
2	2724	12.179916140068	3
2	2737	12.180124140068	1
2	2755	12.190260200916	3
2	2768	12.190468200916	1
2	2788	12.227265778914	3
2	2797	12.227473778914	1
2	2815	12.271518936497	0
2	2821	12.271726936497	1
2	2848	12.279916140068	3
2	2861	12.280124140068	1
2	2879	12.290260200916	3
2	2892	12.290468200916	1
2	2912	12.327265778914	3
2	2921	12.327473778914	1
2	2939	12.371518936497	0
2	2945	12.371726936497	1
2	2972	12.379916140068	3
3	2	1	0
3	2	1	0
3	12	1.171518936497	0
3	12	1.171518936497	0
3	15	1.171998936497	0
3	15	1.171998936497	0
3	27	1.371518936497	0
3	27	1.371518936497	0
3	30	1.371726936497	0
3	30	1.371726936497	0
3	42	1.571518936497	0
3	42	1.571518936497	0
3	45	1.571726936497	0
3	45	1.571726936497	0
3	57	1.771518936497	0
3	57	1.771518936497	0
3	60	1.771998936497	0
3	60	1.771998936497	0
3	75	2.071518936497	0
3	75	2.071518936497	0
3	78	2.071726936497	0
3	78	2.071726936497	0
3	92	2.371518936497	0
3	92	2.371518936497	0
3	95	2.371998936497	0
3	95	2.371998936497	0
3	109	2.671518936497	0
3	109	2.671518936497	0
3	112	2.671726936497	0
3	112	2.671726936497	0
3	126	2.971518936497	0
3	126	2.971518936497	0
3	129	2.971998936497	0
3	129	2.971998936497	0
3	140	3.071518936497	0
3	140	3.071518936497	0
3	143	3.071726936497	0
3	143	3.071726936497	0
3	153	3.171518936497	0
3	153	3.171518936497	0
3	156	3.171726936497	0
3	156	3.171726936497	0
3	166	3.271518936497	0
3	166	3.271518936497	0
3	169	3.271726936497	0
3	169	3.271726936497	0
3	179	3.371518936497	0
3	179	3.371518936497	0
3	182	3.371726936497	0
3	182	3.371726936497	0
3	206	4.071518936497	0
3	206	4.071518936497	0
3	210	4.071998936497	0
3	210	4.071998936497	0
3	228	4.127265675692	0
3	228	4.127265675692	0
3	231	4.127745675692	0
3	231	4.127745675692	0
3	253	4.327265675692	0
3	253	4.327265675692	0
3	256	4.327473675692	0
3	256	4.327473675692	0
3	278	4.527265675692	0
3	278	4.527265675692	0
3	281	4.527473675692	0
3	281	4.527473675692	0
3	303	4.727265675692	0
3	303	4.727265675692	0
3	306	4.727745675692	0
3	306	4.727745675692	0
3	319	4.771518936497	0
3	319	4.771518936497	0
3	323	4.771998936497	0
3	323	4.771998936497	0
3	350	5.027265697397	0
3	350	5.027265697397	0
3	353	5.027473697397	0
3	353	5.027473697397	0
3	366	5.071518936497	0
3	366	5.071518936497	0
3	370	5.071726936497	0
3	370	5.071726936497	0
3	396	5.327265697397	0
3	396	5.327265697397	0
3	399	5.327745697397	0
3	399	5.327745697397	0
3	412	5.371518936497	0
3	412	5.371518936497	0
3	416	5.371998936497	0
3	416	5.371998936497	0
3	442	5.627265697397	0
3	442	5.627265697397	0
3	445	5.627473697397	0
3	445	5.627473697397	0
3	458	5.671518936497	0
3	458	5.671518936497	0
3	462	5.671726936497	0
3	462	5.671726936497	0
3	488	5.927265697397	0
3	488	5.927265697397	0
3	491	5.927745697397	0
3	491	5.927745697397	0
3	504	5.971518936497	0
3	504	5.971518936497	0
3	508	5.971998936497	0
3	508	5.971998936497	0
3	527	6.027265716296	0
3	527	6.027265716296	0
3	530	6.027473716296	0
3	530	6.027473716296	0
3	543	6.071518936497	0
3	543	6.071518936497	0
3	547	6.071726936497	0
3	547	6.071726936497	0
3	565	6.127265716296	0
3	565	6.127265716296	0
3	568	6.127473716296	0
3	568	6.127473716296	0
3	581	6.171518936497	0
3	581	6.171518936497	0
3	585	6.171726936497	0
3	585	6.171726936497	0
3	603	6.227265716296	0
3	603	6.227265716296	0
3	606	6.227473716296	0
3	606	6.227473716296	0
3	619	6.271518936497	0
3	619	6.271518936497	0
3	623	6.271726936497	0
3	623	6.271726936497	0
3	641	6.327265716296	0
3	641	6.327265716296	0
3	644	6.327473716296	0
3	644	6.327473716296	0
3	657	6.371518936497	0
3	657	6.371518936497	0
3	661	6.371726936497	0
3	661	6.371726936497	0
3	706	7.027265732154	0
3	706	7.027265732154	0
3	714	7.027745732154	0
3	714	7.027745732154	0
3	727	7.071518936497	0
3	727	7.071518936497	0
3	732	7.071998936497	0
3	732	7.071998936497	0
3	759	7.17991599931	0
3	759	7.17991599931	0
3	767	7.18039599931	0
3	767	7.18039599931	0
3	794	7.37991599931	0
3	794	7.37991599931	0
3	802	7.38012399931	0
3	802	7.38012399931	0
3	829	7.57991599931	0
3	829	7.57991599931	0
3	837	7.58012399931	0
3	837	7.58012399931	0
3	862	7.727265732154	0
3	862	7.727265732154	0
3	870	7.727745732154	0
3	870	7.727745732154	0
3	883	7.771518936497	0
3	883	7.771518936497	0
3	888	7.771998936497	0
3	888	7.771998936497	0
3	909	7.77991599931	0
3	909	7.77991599931	0
3	917	7.78039599931	0
3	917	7.78039599931	0
3	950	8.027265747034	0
3	950	8.027265747034	0
3	958	8.027473747034	0
3	958	8.027473747034	0
3	971	8.071518936497	0
3	971	8.071518936497	0
3	976	8.071726936497	0
3	976	8.071726936497	0
3	997	8.079916037021	0
3	997	8.079916037021	0
3	1005	8.080124037021	0
3	1005	8.080124037021	0
3	1037	8.327265747034	0
3	1037	8.327265747034	0
3	1045	8.327745747034	0
3	1045	8.327745747034	0
3	1058	8.371518936497	0
3	1058	8.371518936497	0
3	1063	8.371998936497	0
3	1063	8.371998936497	0
3	1084	8.379916037021	0
3	1084	8.379916037021	0
3	1092	8.380396037021	0
3	1092	8.380396037021	0
3	1124	8.627265747034	0
3	1124	8.627265747034	0
3	1132	8.627473747034	0
3	1132	8.627473747034	0
3	1145	8.671518936497	0
3	1145	8.671518936497	0
3	1150	8.671726936497	0
3	1150	8.671726936497	0
3	1171	8.679916037021	0
3	1171	8.679916037021	0
3	1179	8.680124037021	0
3	1179	8.680124037021	0
3	1211	8.927265747034	0
3	1211	8.927265747034	0
3	1219	8.927745747034	0
3	1219	8.927745747034	0
3	1232	8.971518936497	0
3	1232	8.971518936497	0
3	1237	8.971998936497	0
3	1237	8.971998936497	0
3	1258	8.979916037021	0
3	1258	8.979916037021	0
3	1266	8.980396037021	0
3	1266	8.980396037021	0
3	1287	9.027265761647	0
3	1287	9.027265761647	0
3	1295	9.027473761647	0
3	1295	9.027473761647	0
3	1308	9.071518936497	0
3	1308	9.071518936497	0
3	1313	9.071726936497	0
3	1313	9.071726936497	0
3	1334	9.079916072914	0
3	1334	9.079916072914	0
3	1342	9.080124072914	0
3	1342	9.080124072914	0
3	1362	9.127265761647	0
3	1362	9.127265761647	0
3	1370	9.127473761647	0
3	1370	9.127473761647	0
3	1383	9.171518936497	0
3	1383	9.171518936497	0
3	1388	9.171726936497	0
3	1388	9.171726936497	0
3	1409	9.179916072914	0
3	1409	9.179916072914	0
3	1417	9.180124072914	0
3	1417	9.180124072914	0
3	1437	9.227265761647	0
3	1437	9.227265761647	0
3	1445	9.227473761647	0
3	1445	9.227473761647	0
3	1458	9.271518936497	0
3	1458	9.271518936497	0
3	1463	9.271726936497	0
3	1463	9.271726936497	0
3	1484	9.279916072914	0
3	1484	9.279916072914	0
3	1492	9.280124072914	0
3	1492	9.280124072914	0
3	1512	9.327265761647	0
3	1512	9.327265761647	0
3	1520	9.327473761647	0
3	1520	9.327473761647	0
3	1533	9.371518936497	0
3	1533	9.371518936497	0
3	1538	9.371726936497	0
3	1538	9.371726936497	0
3	1559	9.379916072914	0
3	1559	9.379916072914	0
3	1567	9.380124072914	0
3	1567	9.380124072914	0
3	1625	10.027265768965	0
3	1625	10.027265768965	0
3	1634	10.027745768965	0
3	1634	10.027745768965	0
3	1652	10.071518936497	0
3	1652	10.071518936497	0
3	1658	10.071998936497	0
3	1658	10.071998936497	0
3	1685	10.079916100053	0
3	1685	10.079916100053	0
3	1698	10.080396100053	0
3	1698	10.080396100053	0
3	1723	10.19026012723	0
3	1723	10.19026012723	0
3	1736	10.19074012723	0
3	1736	10.19074012723	0
3	1768	10.39026012723	0
3	1768	10.39026012723	0
3	1781	10.39046812723	0
3	1781	10.39046812723	0
3	1813	10.59026012723	0
3	1813	10.59026012723	0
3	1826	10.59046812723	0
3	1826	10.59046812723	0
3	1854	10.727265768965	0
3	1854	10.727265768965	0
3	1863	10.727745768965	0
3	1863	10.727745768965	0
3	1881	10.771518936497	0
3	1881	10.771518936497	0
3	1887	10.771998936497	0
3	1887	10.771998936497	0
3	1914	10.779916100053	0
3	1914	10.779916100053	0
3	1927	10.780396100053	0
3	1927	10.780396100053	0
3	1944	10.79026012723	0
3	1944	10.79026012723	0
3	1958	10.79074012723	0
3	1958	10.79074012723	0
3	1995	11.02726577458	0
3	1995	11.02726577458	0
3	2004	11.02747377458	0
3	2004	11.02747377458	0
3	2022	11.071518936497	0
3	2022	11.071518936497	0
3	2028	11.071726936497	0
3	2028	11.071726936497	0
3	2055	11.079916122576	0
3	2055	11.079916122576	0
3	2068	11.080124122576	0
3	2068	11.080124122576	0
3	2086	11.090260167622	0
3	2086	11.090260167622	0
3	2099	11.090468167622	0
3	2099	11.090468167622	0
3	2135	11.32726577458	0
3	2135	11.32726577458	0
3	2144	11.32774577458	0
3	2144	11.32774577458	0
3	2162	11.371518936497	0
3	2162	11.371518936497	0
3	2168	11.371998936497	0
3	2168	11.371998936497	0
3	2195	11.379916122576	0
3	2195	11.379916122576	0
3	2208	11.380396122576	0
3	2208	11.380396122576	0
3	2225	11.390260167622	0
3	2225	11.390260167622	0
3	2239	11.390740167622	0
3	2239	11.390740167622	0
3	2275	11.62726577458	0
3	2275	11.62726577458	0
3	2284	11.62747377458	0
3	2284	11.62747377458	0
3	2302	11.671518936497	0
3	2302	11.671518936497	0
3	2308	11.671726936497	0
3	2308	11.671726936497	0
3	2335	11.679916122576	0
3	2335	11.679916122576	0
3	2348	11.680124122576	0
3	2348	11.680124122576	0
3	2366	11.690260167622	0
3	2366	11.690260167622	0
3	2379	11.690468167622	0
3	2379	11.690468167622	0
3	2415	11.92726577458	0
3	2415	11.92726577458	0
3	2424	11.92774577458	0
3	2424	11.92774577458	0
3	2442	11.971518936497	0
3	2442	11.971518936497	0
3	2448	11.971998936497	0
3	2448	11.971998936497	0
3	2475	11.979916122576	0
3	2475	11.979916122576	0
3	2488	11.980396122576	0
3	2488	11.980396122576	0
3	2505	11.990260167622	0
3	2505	11.990260167622	0
3	2519	11.990740167622	0
3	2519	11.990740167622	0
3	2540	12.027265778914	0
3	2540	12.027265778914	0
3	2549	12.027473778914	0
3	2549	12.027473778914	0
3	2567	12.071518936497	0
3	2567	12.071518936497	0
3	2573	12.071726936497	0
3	2573	12.071726936497	0
3	2600	12.079916140068	0
3	2600	12.079916140068	0
3	2613	12.080124140068	0
3	2613	12.080124140068	0
3	2631	12.090260200916	0
3	2631	12.090260200916	0
3	2644	12.090468200916	0
3	2644	12.090468200916	0
3	2664	12.127265778914	0
3	2664	12.127265778914	0
3	2673	12.127473778914	0
3	2673	12.127473778914	0
3	2691	12.171518936497	0
3	2691	12.171518936497	0
3	2697	12.171726936497	0
3	2697	12.171726936497	0
3	2724	12.179916140068	0
3	2724	12.179916140068	0
3	2737	12.180124140068	0
3	2737	12.180124140068	0
3	2755	12.190260200916	0
3	2755	12.190260200916	0
3	2768	12.190468200916	0
3	2768	12.190468200916	0
3	2788	12.227265778914	0
3	2788	12.227265778914	0
3	2797	12.227473778914	0
3	2797	12.227473778914	0
3	2815	12.271518936497	0
3	2815	12.271518936497	0
3	2821	12.271726936497	0
3	2821	12.271726936497	0
3	2848	12.279916140068	0
3	2848	12.279916140068	0
3	2861	12.280124140068	0
3	2861	12.280124140068	0
3	2879	12.290260200916	0
3	2879	12.290260200916	0
3	2892	12.290468200916	0
3	2892	12.290468200916	0
3	2912	12.327265778914	0
3	2912	12.327265778914	0
3	2921	12.327473778914	0
3	2921	12.327473778914	0
3	2939	12.371518936497	0
3	2939	12.371518936497	0
3	2945	12.371726936497	0
3	2945	12.371726936497	0
3	2972	12.379916140068	0
3	2972	12.379916140068	0
4	2	1	0
4	2	1	0
4	12	1.171518936497	0
4	12	1.171518936497	0
4	15	1.171998936497	0
4	15	1.171998936497	0
4	27	1.371518936497	0
4	27	1.371518936497	0
4	30	1.371726936497	0
4	30	1.371726936497	0
4	42	1.571518936497	0
4	42	1.571518936497	0
4	45	1.571726936497	0
4	45	1.571726936497	0
4	57	1.771518936497	0
4	57	1.771518936497	0
4	60	1.771998936497	0
4	60	1.771998936497	0
4	75	2.071518936497	0
4	75	2.071518936497	0
4	78	2.071726936497	0
4	78	2.071726936497	0
4	92	2.371518936497	0
4	92	2.371518936497	0
4	95	2.371998936497	0
4	95	2.371998936497	0
4	109	2.671518936497	0
4	109	2.671518936497	0
4	112	2.671726936497	0
4	112	2.671726936497	0
4	126	2.971518936497	0
4	126	2.971518936497	0
4	129	2.971998936497	0
4	129	2.971998936497	0
4	140	3.071518936497	0
4	140	3.071518936497	0
4	143	3.071726936497	0
4	143	3.071726936497	0
4	153	3.171518936497	0
4	153	3.171518936497	0
4	156	3.171726936497	0
4	156	3.171726936497	0
4	166	3.271518936497	0
4	166	3.271518936497	0
4	169	3.271726936497	0
4	169	3.271726936497	0
4	179	3.371518936497	0
4	179	3.371518936497	0
4	182	3.371726936497	0
4	182	3.371726936497	0
4	206	4.071518936497	0
4	206	4.071518936497	0
4	210	4.071998936497	0
4	210	4.071998936497	0
4	228	4.127265675692	0
4	228	4.127265675692	0
4	231	4.127745675692	0
4	231	4.127745675692	0
4	253	4.327265675692	0
4	253	4.327265675692	0
4	256	4.327473675692	0
4	256	4.327473675692	0
4	278	4.527265675692	0
4	278	4.527265675692	0
4	281	4.527473675692	0
4	281	4.527473675692	0
4	303	4.727265675692	0
4	303	4.727265675692	0
4	306	4.727745675692	0
4	306	4.727745675692	0
4	319	4.771518936497	0
4	319	4.771518936497	0
4	323	4.771998936497	0
4	323	4.771998936497	0
4	350	5.027265697397	0
4	350	5.027265697397	0
4	353	5.027473697397	0
4	353	5.027473697397	0
4	366	5.071518936497	0
4	366	5.071518936497	0
4	370	5.071726936497	0
4	370	5.071726936497	0
4	396	5.327265697397	0
4	396	5.327265697397	0
4	399	5.327745697397	0
4	399	5.327745697397	0
4	412	5.371518936497	0
4	412	5.371518936497	0
4	416	5.371998936497	0
4	416	5.371998936497	0
4	442	5.627265697397	0
4	442	5.627265697397	0
4	445	5.627473697397	0
4	445	5.627473697397	0
4	458	5.671518936497	0
4	458	5.671518936497	0
4	462	5.671726936497	0
4	462	5.671726936497	0
4	488	5.927265697397	0
4	488	5.927265697397	0
4	491	5.927745697397	0
4	491	5.927745697397	0
4	504	5.971518936497	0
4	504	5.971518936497	0
4	508	5.971998936497	0
4	508	5.971998936497	0
4	527	6.027265716296	0
4	527	6.027265716296	0
4	530	6.027473716296	0
4	530	6.027473716296	0
4	543	6.071518936497	0
4	543	6.071518936497	0
4	547	6.071726936497	0
4	547	6.071726936497	0
4	565	6.127265716296	0
4	565	6.127265716296	0
4	568	6.127473716296	0
4	568	6.127473716296	0
4	581	6.171518936497	0
4	581	6.171518936497	0
4	585	6.171726936497	0
4	585	6.171726936497	0
4	603	6.227265716296	0
4	603	6.227265716296	0
4	606	6.227473716296	0
4	606	6.227473716296	0
4	619	6.271518936497	0
4	619	6.271518936497	0
4	623	6.271726936497	0
4	623	6.271726936497	0
4	641	6.327265716296	0
4	641	6.327265716296	0
4	644	6.327473716296	0
4	644	6.327473716296	0
4	657	6.371518936497	0
4	657	6.371518936497	0
4	661	6.371726936497	0
4	661	6.371726936497	0
4	706	7.027265732154	0
4	706	7.027265732154	0
4	714	7.027745732154	0
4	714	7.027745732154	0
4	727	7.071518936497	0
4	727	7.071518936497	0
4	732	7.071998936497	0
4	732	7.071998936497	0
4	759	7.17991599931	0
4	759	7.17991599931	0
4	767	7.18039599931	0
4	767	7.18039599931	0
4	794	7.37991599931	0
4	794	7.37991599931	0
4	802	7.38012399931	0
4	802	7.38012399931	0
4	829	7.57991599931	0
4	829	7.57991599931	0
4	837	7.58012399931	0
4	837	7.58012399931	0
4	862	7.727265732154	0
4	862	7.727265732154	0
4	870	7.727745732154	0
4	870	7.727745732154	0
4	883	7.771518936497	0
4	883	7.771518936497	0
4	888	7.771998936497	0
4	888	7.771998936497	0
4	909	7.77991599931	0
4	909	7.77991599931	0
4	917	7.78039599931	0
4	917	7.78039599931	0
4	950	8.027265747034	0
4	950	8.027265747034	0
4	958	8.027473747034	0
4	958	8.027473747034	0
4	971	8.071518936497	0
4	971	8.071518936497	0
4	976	8.071726936497	0
4	976	8.071726936497	0
4	997	8.079916037021	0
4	997	8.079916037021	0
4	1005	8.080124037021	0
4	1005	8.080124037021	0
4	1037	8.327265747034	0
4	1037	8.327265747034	0
4	1045	8.327745747034	0
4	1045	8.327745747034	0
4	1058	8.371518936497	0
4	1058	8.371518936497	0
4	1063	8.371998936497	0
4	1063	8.371998936497	0
4	1084	8.379916037021	0
4	1084	8.379916037021	0
4	1092	8.380396037021	0
4	1092	8.380396037021	0
4	1124	8.627265747034	0
4	1124	8.627265747034	0
4	1132	8.627473747034	0
4	1132	8.627473747034	0
4	1145	8.671518936497	0
4	1145	8.671518936497	0
4	1150	8.671726936497	0
4	1150	8.671726936497	0
4	1171	8.679916037021	0
4	1171	8.679916037021	0
4	1179	8.680124037021	0
4	1179	8.680124037021	0
4	1211	8.927265747034	0
4	1211	8.927265747034	0
4	1219	8.927745747034	0
4	1219	8.927745747034	0
4	1232	8.971518936497	0
4	1232	8.971518936497	0
4	1237	8.971998936497	0
4	1237	8.971998936497	0
4	1258	8.979916037021	0
4	1258	8.979916037021	0
4	1266	8.980396037021	0
4	1266	8.980396037021	0
4	1287	9.027265761647	0
4	1287	9.027265761647	0
4	1295	9.027473761647	0
4	1295	9.027473761647	0
4	1308	9.071518936497	0
4	1308	9.071518936497	0
4	1313	9.071726936497	0
4	1313	9.071726936497	0
4	1334	9.079916072914	0
4	1334	9.079916072914	0
4	1342	9.080124072914	0
4	1342	9.080124072914	0
4	1362	9.127265761647	0
4	1362	9.127265761647	0
4	1370	9.127473761647	0
4	1370	9.127473761647	0
4	1383	9.171518936497	0
4	1383	9.171518936497	0
4	1388	9.171726936497	0
4	1388	9.171726936497	0
4	1409	9.179916072914	0
4	1409	9.179916072914	0
4	1417	9.180124072914	0
4	1417	9.180124072914	0
4	1437	9.227265761647	0
4	1437	9.227265761647	0
4	1445	9.227473761647	0
4	1445	9.227473761647	0
4	1458	9.271518936497	0
4	1458	9.271518936497	0
4	1463	9.271726936497	0
4	1463	9.271726936497	0
4	1484	9.279916072914	0
4	1484	9.279916072914	0
4	1492	9.280124072914	0
4	1492	9.280124072914	0
4	1512	9.327265761647	0
4	1512	9.327265761647	0
4	1520	9.327473761647	0
4	1520	9.327473761647	0
4	1533	9.371518936497	0
4	1533	9.371518936497	0
4	1538	9.371726936497	0
4	1538	9.371726936497	0
4	1559	9.379916072914	0
4	1559	9.379916072914	0
4	1567	9.380124072914	0
4	1567	9.380124072914	0
4	1625	10.027265768965	0
4	1625	10.027265768965	0
4	1634	10.027745768965	0
4	1634	10.027745768965	0
4	1652	10.071518936497	0
4	1652	10.071518936497	0
4	1658	10.071998936497	0
4	1658	10.071998936497	0
4	1685	10.079916100053	0
4	1685	10.079916100053	0
4	1698	10.080396100053	0
4	1698	10.080396100053	0
4	1723	10.19026012723	0
4	1723	10.19026012723	0
4	1736	10.19074012723	0
4	1736	10.19074012723	0
4	1768	10.39026012723	0
4	1768	10.39026012723	0
4	1781	10.39046812723	0
4	1781	10.39046812723	0
4	1813	10.59026012723	0
4	1813	10.59026012723	0
4	1826	10.59046812723	0
4	1826	10.59046812723	0
4	1854	10.727265768965	0
4	1854	10.727265768965	0
4	1863	10.727745768965	0
4	1863	10.727745768965	0
4	1881	10.771518936497	0
4	1881	10.771518936497	0
4	1887	10.771998936497	0
4	1887	10.771998936497	0
4	1914	10.779916100053	0
4	1914	10.779916100053	0
4	1927	10.780396100053	0
4	1927	10.780396100053	0
4	1944	10.79026012723	0
4	1944	10.79026012723	0
4	1958	10.79074012723	0
4	1958	10.79074012723	0
4	1995	11.02726577458	0
4	1995	11.02726577458	0
4	2004	11.02747377458	0
4	2004	11.02747377458	0
4	2022	11.071518936497	0
4	2022	11.071518936497	0
4	2028	11.071726936497	0
4	2028	11.071726936497	0
4	2055	11.079916122576	0
4	2055	11.079916122576	0
4	2068	11.080124122576	0
4	2068	11.080124122576	0
4	2086	11.090260167622	0
4	2086	11.090260167622	0
4	2099	11.090468167622	0
4	2099	11.090468167622	0
4	2135	11.32726577458	0
4	2135	11.32726577458	0
4	2144	11.32774577458	0
4	2144	11.32774577458	0
4	2162	11.371518936497	0
4	2162	11.371518936497	0
4	2168	11.371998936497	0
4	2168	11.371998936497	0
4	2195	11.379916122576	0
4	2195	11.379916122576	0
4	2208	11.380396122576	0
4	2208	11.380396122576	0
4	2225	11.390260167622	0
4	2225	11.390260167622	0
4	2239	11.390740167622	0
4	2239	11.390740167622	0
4	2275	11.62726577458	0
4	2275	11.62726577458	0
4	2284	11.62747377458	0
4	2284	11.62747377458	0
4	2302	11.671518936497	0
4	2302	11.671518936497	0
4	2308	11.671726936497	0
4	2308	11.671726936497	0
4	2335	11.679916122576	0
4	2335	11.679916122576	0
4	2348	11.680124122576	0
4	2348	11.680124122576	0
4	2366	11.690260167622	0
4	2366	11.690260167622	0
4	2379	11.690468167622	0
4	2379	11.690468167622	0
4	2415	11.92726577458	0
4	2415	11.92726577458	0
4	2424	11.92774577458	0
4	2424	11.92774577458	0
4	2442	11.971518936497	0
4	2442	11.971518936497	0
4	2448	11.971998936497	0
4	2448	11.971998936497	0
4	2475	11.979916122576	0
4	2475	11.979916122576	0
4	2488	11.980396122576	0
4	2488	11.980396122576	0
4	2505	11.990260167622	0
4	2505	11.990260167622	0
4	2519	11.990740167622	0
4	2519	11.990740167622	0
4	2540	12.027265778914	0
4	2540	12.027265778914	0
4	2549	12.027473778914	0
4	2549	12.027473778914	0
4	2567	12.071518936497	0
4	2567	12.071518936497	0
4	2573	12.071726936497	0
4	2573	12.071726936497	0
4	2600	12.079916140068	0
4	2600	12.079916140068	0
4	2613	12.080124140068	0
4	2613	12.080124140068	0
4	2631	12.090260200916	0
4	2631	12.090260200916	0
4	2644	12.090468200916	0
4	2644	12.090468200916	0
4	2664	12.127265778914	0
4	2664	12.127265778914	0
4	2673	12.127473778914	0
4	2673	12.127473778914	0
4	2691	12.171518936497	0
4	2691	12.171518936497	0
4	2697	12.171726936497	0
4	2697	12.171726936497	0
4	2724	12.179916140068	0
4	2724	12.179916140068	0
4	2737	12.180124140068	0
4	2737	12.180124140068	0
4	2755	12.190260200916	0
4	2755	12.190260200916	0
4	2768	12.190468200916	0
4	2768	12.190468200916	0
4	2788	12.227265778914	0
4	2788	12.227265778914	0
4	2797	12.227473778914	0
4	2797	12.227473778914	0
4	2815	12.271518936497	0
4	2815	12.271518936497	0
4	2821	12.271726936497	0
4	2821	12.271726936497	0
4	2848	12.279916140068	0
4	2848	12.279916140068	0
4	2861	12.280124140068	0
4	2861	12.280124140068	0
4	2879	12.290260200916	0
4	2879	12.290260200916	0
4	2892	12.290468200916	0
4	2892	12.290468200916	0
4	2912	12.327265778914	0
4	2912	12.327265778914	0
4	2921	12.327473778914	0
4	2921	12.327473778914	0
4	2939	12.371518936497	0
4	2939	12.371518936497	0
4	2945	12.371726936497	0
4	2945	12.371726936497	0
4	2972	12.379916140068	0
4	2972	12.379916140068	0
5	2	1	0
5	2	1	0
5	8	1.171518936497	0
5	8	1.171518936497	2
5	9	1.171518936497	2
5	9	1.171518936497	0
5	12	1.171518936497	0
5	12	1.171518936497	0
5	15	1.171998936497	0
5	15	1.171998936497	0
5	23	1.371518936497	0
5	23	1.371518936497	2
5	24	1.371518936497	2
5	24	1.371518936497	0
5	27	1.371518936497	0
5	27	1.371518936497	0
5	30	1.371726936497	0
5	30	1.371726936497	0
5	38	1.571518936497	0
5	38	1.571518936497	2
5	39	1.571518936497	2
5	39	1.571518936497	0
5	42	1.571518936497	0
5	42	1.571518936497	0
5	45	1.571726936497	0
5	45	1.571726936497	0
5	53	1.771518936497	0
5	53	1.771518936497	2
5	54	1.771518936497	2
5	54	1.771518936497	0
5	57	1.771518936497	0
5	57	1.771518936497	0
5	60	1.771998936497	0
5	60	1.771998936497	0
5	71	2.071518936497	0
5	71	2.071518936497	2
5	72	2.071518936497	2
5	72	2.071518936497	0
5	75	2.071518936497	0
5	75	2.071518936497	0
5	78	2.071726936497	0
5	78	2.071726936497	0
5	88	2.371518936497	0
5	88	2.371518936497	2
5	89	2.371518936497	2
5	89	2.371518936497	0
5	92	2.371518936497	0
5	92	2.371518936497	0
5	95	2.371998936497	0
5	95	2.371998936497	0
5	105	2.671518936497	0
5	105	2.671518936497	2
5	106	2.671518936497	2
5	106	2.671518936497	0
5	109	2.671518936497	0
5	109	2.671518936497	0
5	112	2.671726936497	0
5	112	2.671726936497	0
5	122	2.971518936497	0
5	122	2.971518936497	2
5	123	2.971518936497	2
5	123	2.971518936497	0
5	126	2.971518936497	0
5	126	2.971518936497	0
5	129	2.971998936497	0
5	129	2.971998936497	0
5	136	3.071518936497	0
5	136	3.071518936497	2
5	137	3.071518936497	2
5	137	3.071518936497	0
5	140	3.071518936497	0
5	140	3.071518936497	0
5	143	3.071726936497	0
5	143	3.071726936497	0
5	149	3.171518936497	0
5	149	3.171518936497	2
5	150	3.171518936497	2
5	150	3.171518936497	0
5	153	3.171518936497	0
5	153	3.171518936497	0
5	156	3.171726936497	0
5	156	3.171726936497	0
5	162	3.271518936497	0
5	162	3.271518936497	2
5	163	3.271518936497	2
5	163	3.271518936497	0
5	166	3.271518936497	0
5	166	3.271518936497	0
5	169	3.271726936497	0
5	169	3.271726936497	0
5	175	3.371518936497	0
5	175	3.371518936497	2
5	176	3.371518936497	2
5	176	3.371518936497	0
5	179	3.371518936497	0
5	179	3.371518936497	0
5	182	3.371726936497	0
5	182	3.371726936497	0
5	202	4.071518936497	0
5	202	4.071518936497	2
5	203	4.071518936497	2
5	203	4.071518936497	0
5	206	4.071518936497	0
5	206	4.071518936497	0
5	210	4.071998936497	0
5	210	4.071998936497	0
5	228	4.127265675692	0
5	228	4.127265675692	0
5	231	4.127745675692	0
5	231	4.127745675692	0
5	253	4.327265675692	0
5	253	4.327265675692	0
5	256	4.327473675692	0
5	256	4.327473675692	0
5	278	4.527265675692	0
5	278	4.527265675692	0
5	281	4.527473675692	0
5	281	4.527473675692	0
5	303	4.727265675692	0
5	303	4.727265675692	0
5	306	4.727745675692	0
5	306	4.727745675692	0
5	315	4.771518936497	0
5	315	4.771518936497	2
5	316	4.771518936497	2
5	316	4.771518936497	0
5	319	4.771518936497	0
5	319	4.771518936497	0
5	323	4.771998936497	0
5	323	4.771998936497	0
5	350	5.027265697397	0
5	350	5.027265697397	0
5	353	5.027473697397	0
5	353	5.027473697397	0
5	362	5.071518936497	0
5	362	5.071518936497	2
5	363	5.071518936497	2
5	363	5.071518936497	0
5	366	5.071518936497	0
5	366	5.071518936497	0
5	370	5.071726936497	0
5	370	5.071726936497	0
5	396	5.327265697397	0
5	396	5.327265697397	0
5	399	5.327745697397	0
5	399	5.327745697397	0
5	408	5.371518936497	0
5	408	5.371518936497	2
5	409	5.371518936497	2
5	409	5.371518936497	0
5	412	5.371518936497	0
5	412	5.371518936497	0
5	416	5.371998936497	0
5	416	5.371998936497	0
5	442	5.627265697397	0
5	442	5.627265697397	0
5	445	5.627473697397	0
5	445	5.627473697397	0
5	454	5.671518936497	0
5	454	5.671518936497	2
5	455	5.671518936497	2
5	455	5.671518936497	0
5	458	5.671518936497	0
5	458	5.671518936497	0
5	462	5.671726936497	0
5	462	5.671726936497	0
5	488	5.927265697397	0
5	488	5.927265697397	0
5	491	5.927745697397	0
5	491	5.927745697397	0
5	500	5.971518936497	0
5	500	5.971518936497	2
5	501	5.971518936497	2
5	501	5.971518936497	0
5	504	5.971518936497	0
5	504	5.971518936497	0
5	508	5.971998936497	0
5	508	5.971998936497	0
5	527	6.027265716296	0
5	527	6.027265716296	0
5	530	6.027473716296	0
5	530	6.027473716296	0
5	539	6.071518936497	0
5	539	6.071518936497	2
5	540	6.071518936497	2
5	540	6.071518936497	0
5	543	6.071518936497	0
5	543	6.071518936497	0
5	547	6.071726936497	0
5	547	6.071726936497	0
5	565	6.127265716296	0
5	565	6.127265716296	0
5	568	6.127473716296	0
5	568	6.127473716296	0
5	577	6.171518936497	0
5	577	6.171518936497	2
5	578	6.171518936497	2
5	578	6.171518936497	0
5	581	6.171518936497	0
5	581	6.171518936497	0
5	585	6.171726936497	0
5	585	6.171726936497	0
5	603	6.227265716296	0
5	603	6.227265716296	0
5	606	6.227473716296	0
5	606	6.227473716296	0
5	615	6.271518936497	0
5	615	6.271518936497	2
5	616	6.271518936497	2
5	616	6.271518936497	0
5	619	6.271518936497	0
5	619	6.271518936497	0
5	623	6.271726936497	0
5	623	6.271726936497	0
5	641	6.327265716296	0
5	641	6.327265716296	0
5	644	6.327473716296	0
5	644	6.327473716296	0
5	653	6.371518936497	0
5	653	6.371518936497	2
5	654	6.371518936497	2
5	654	6.371518936497	0
5	657	6.371518936497	0
5	657	6.371518936497	0
5	661	6.371726936497	0
5	661	6.371726936497	0
5	706	7.027265732154	0
5	706	7.027265732154	0
5	714	7.027745732154	0
5	714	7.027745732154	0
5	723	7.071518936497	0
5	723	7.071518936497	2
5	724	7.071518936497	2
5	724	7.071518936497	0
5	727	7.071518936497	0
5	727	7.071518936497	0
5	732	7.071998936497	0
5	732	7.071998936497	0
5	759	7.17991599931	0
5	759	7.17991599931	0
5	767	7.18039599931	0
5	767	7.18039599931	0
5	794	7.37991599931	0
5	794	7.37991599931	0
5	802	7.38012399931	0
5	802	7.38012399931	0
5	829	7.57991599931	0
5	829	7.57991599931	0
5	837	7.58012399931	0
5	837	7.58012399931	0
5	862	7.727265732154	0
5	862	7.727265732154	0
5	870	7.727745732154	0
5	870	7.727745732154	0
5	879	7.771518936497	0
5	879	7.771518936497	2
5	880	7.771518936497	2
5	880	7.771518936497	0
5	883	7.771518936497	0
5	883	7.771518936497	0
5	888	7.771998936497	0
5	888	7.771998936497	0
5	909	7.77991599931	0
5	909	7.77991599931	0
5	917	7.78039599931	0
5	917	7.78039599931	0
5	950	8.027265747034	0
5	950	8.027265747034	0
5	958	8.027473747034	0
5	958	8.027473747034	0
5	967	8.071518936497	0
5	967	8.071518936497	2
5	968	8.071518936497	2
5	968	8.071518936497	0
5	971	8.071518936497	0
5	971	8.071518936497	0
5	976	8.071726936497	0
5	976	8.071726936497	0
5	997	8.079916037021	0
5	997	8.079916037021	0
5	1005	8.080124037021	0
5	1005	8.080124037021	0
5	1037	8.327265747034	0
5	1037	8.327265747034	0
5	1045	8.327745747034	0
5	1045	8.327745747034	0
5	1054	8.371518936497	0
5	1054	8.371518936497	2
5	1055	8.371518936497	2
5	1055	8.371518936497	0
5	1058	8.371518936497	0
5	1058	8.371518936497	0
5	1063	8.371998936497	0
5	1063	8.371998936497	0
5	1084	8.379916037021	0
5	1084	8.379916037021	0
5	1092	8.380396037021	0
5	1092	8.380396037021	0
5	1124	8.627265747034	0
5	1124	8.627265747034	0
5	1132	8.627473747034	0
5	1132	8.627473747034	0
5	1141	8.671518936497	0
5	1141	8.671518936497	2
5	1142	8.671518936497	2
5	1142	8.671518936497	0
5	1145	8.671518936497	0
5	1145	8.671518936497	0
5	1150	8.671726936497	0
5	1150	8.671726936497	0
5	1171	8.679916037021	0
5	1171	8.679916037021	0
5	1179	8.680124037021	0
5	1179	8.680124037021	0
5	1211	8.927265747034	0
5	1211	8.927265747034	0
5	1219	8.927745747034	0
5	1219	8.927745747034	0
5	1228	8.971518936497	0
5	1228	8.971518936497	2
5	1229	8.971518936497	2
5	1229	8.971518936497	0
5	1232	8.971518936497	0
5	1232	8.971518936497	0
5	1237	8.971998936497	0
5	1237	8.971998936497	0
5	1258	8.979916037021	0
5	1258	8.979916037021	0
5	1266	8.980396037021	0
5	1266	8.980396037021	0
5	1287	9.027265761647	0
5	1287	9.027265761647	0
5	1295	9.027473761647	0
5	1295	9.027473761647	0
5	1304	9.071518936497	0
5	1304	9.071518936497	2
5	1305	9.071518936497	2
5	1305	9.071518936497	0
5	1308	9.071518936497	0
5	1308	9.071518936497	0
5	1313	9.071726936497	0
5	1313	9.071726936497	0
5	1334	9.079916072914	0
5	1334	9.079916072914	0
5	1342	9.080124072914	0
5	1342	9.080124072914	0
5	1362	9.127265761647	0
5	1362	9.127265761647	0
5	1370	9.127473761647	0
5	1370	9.127473761647	0
5	1379	9.171518936497	0
5	1379	9.171518936497	2
5	1380	9.171518936497	2
5	1380	9.171518936497	0
5	1383	9.171518936497	0
5	1383	9.171518936497	0
5	1388	9.171726936497	0
5	1388	9.171726936497	0
5	1409	9.179916072914	0
5	1409	9.179916072914	0
5	1417	9.180124072914	0
5	1417	9.180124072914	0
5	1437	9.227265761647	0
5	1437	9.227265761647	0
5	1445	9.227473761647	0
5	1445	9.227473761647	0
5	1454	9.271518936497	0
5	1454	9.271518936497	2
5	1455	9.271518936497	2
5	1455	9.271518936497	0
5	1458	9.271518936497	0
5	1458	9.271518936497	0
5	1463	9.271726936497	0
5	1463	9.271726936497	0
5	1484	9.279916072914	0
5	1484	9.279916072914	0
5	1492	9.280124072914	0
5	1492	9.280124072914	0
5	1512	9.327265761647	0
5	1512	9.327265761647	0
5	1520	9.327473761647	0
5	1520	9.327473761647	0
5	1529	9.371518936497	0
5	1529	9.371518936497	2
5	1530	9.371518936497	2
5	1530	9.371518936497	0
5	1533	9.371518936497	0
5	1533	9.371518936497	0
5	1538	9.371726936497	0
5	1538	9.371726936497	0
5	1559	9.379916072914	0
5	1559	9.379916072914	0
5	1567	9.380124072914	0
5	1567	9.380124072914	0
5	1625	10.027265768965	0
5	1625	10.027265768965	0
5	1634	10.027745768965	0
5	1634	10.027745768965	0
5	1648	10.071518936497	0
5	1648	10.071518936497	2
5	1649	10.071518936497	2
5	1649	10.071518936497	0
5	1652	10.071518936497	0
5	1652	10.071518936497	0
5	1658	10.071998936497	0
5	1658	10.071998936497	0
5	1685	10.079916100053	0
5	1685	10.079916100053	0
5	1698	10.080396100053	0
5	1698	10.080396100053	0
5	1723	10.19026012723	0
5	1723	10.19026012723	0
5	1736	10.19074012723	0
5	1736	10.19074012723	0
5	1768	10.39026012723	0
5	1768	10.39026012723	0
5	1781	10.39046812723	0
5	1781	10.39046812723	0
5	1813	10.59026012723	0
5	1813	10.59026012723	0
5	1826	10.59046812723	0
5	1826	10.59046812723	0
5	1854	10.727265768965	0
5	1854	10.727265768965	0
5	1863	10.727745768965	0
5	1863	10.727745768965	0
5	1877	10.771518936497	0
5	1877	10.771518936497	2
5	1878	10.771518936497	2
5	1878	10.771518936497	0
5	1881	10.771518936497	0
5	1881	10.771518936497	0
5	1887	10.771998936497	0
5	1887	10.771998936497	0
5	1914	10.779916100053	0
5	1914	10.779916100053	0
5	1927	10.780396100053	0
5	1927	10.780396100053	0
5	1944	10.79026012723	0
5	1944	10.79026012723	0
5	1958	10.79074012723	0
5	1958	10.79074012723	0
5	1995	11.02726577458	0
5	1995	11.02726577458	0
5	2004	11.02747377458	0
5	2004	11.02747377458	0
5	2018	11.071518936497	0
5	2018	11.071518936497	2
5	2019	11.071518936497	2
5	2019	11.071518936497	0
5	2022	11.071518936497	0
5	2022	11.071518936497	0
5	2028	11.071726936497	0
5	2028	11.071726936497	0
5	2055	11.079916122576	0
5	2055	11.079916122576	0
5	2068	11.080124122576	0
5	2068	11.080124122576	0
5	2086	11.090260167622	0
5	2086	11.090260167622	0
5	2099	11.090468167622	0
5	2099	11.090468167622	0
5	2135	11.32726577458	0
5	2135	11.32726577458	0
5	2144	11.32774577458	0
5	2144	11.32774577458	0
5	2158	11.371518936497	0
5	2158	11.371518936497	2
5	2159	11.371518936497	2
5	2159	11.371518936497	0
5	2162	11.371518936497	0
5	2162	11.371518936497	0
5	2168	11.371998936497	0
5	2168	11.371998936497	0
5	2195	11.379916122576	0
5	2195	11.379916122576	0
5	2208	11.380396122576	0
5	2208	11.380396122576	0
5	2225	11.390260167622	0
5	2225	11.390260167622	0
5	2239	11.390740167622	0
5	2239	11.390740167622	0
5	2275	11.62726577458	0
5	2275	11.62726577458	0
5	2284	11.62747377458	0
5	2284	11.62747377458	0
5	2298	11.671518936497	0
5	2298	11.671518936497	2
5	2299	11.671518936497	2
5	2299	11.671518936497	0
5	2302	11.671518936497	0
5	2302	11.671518936497	0
5	2308	11.671726936497	0
5	2308	11.671726936497	0
5	2335	11.679916122576	0
5	2335	11.679916122576	0
5	2348	11.680124122576	0
5	2348	11.680124122576	0
5	2366	11.690260167622	0
5	2366	11.690260167622	0
5	2379	11.690468167622	0
5	2379	11.690468167622	0
5	2415	11.92726577458	0
5	2415	11.92726577458	0
5	2424	11.92774577458	0
5	2424	11.92774577458	0
5	2438	11.971518936497	0
5	2438	11.971518936497	2
5	2439	11.971518936497	2
5	2439	11.971518936497	0
5	2442	11.971518936497	0
5	2442	11.971518936497	0
5	2448	11.971998936497	0
5	2448	11.971998936497	0
5	2475	11.979916122576	0
5	2475	11.979916122576	0
5	2488	11.980396122576	0
5	2488	11.980396122576	0
5	2505	11.990260167622	0
5	2505	11.990260167622	0
5	2519	11.990740167622	0
5	2519	11.990740167622	0
5	2540	12.027265778914	0
5	2540	12.027265778914	0
5	2549	12.027473778914	0
5	2549	12.027473778914	0
5	2563	12.071518936497	0
5	2563	12.071518936497	2
5	2564	12.071518936497	2
5	2564	12.071518936497	0
5	2567	12.071518936497	0
5	2567	12.071518936497	0
5	2573	12.071726936497	0
5	2573	12.071726936497	0
5	2600	12.079916140068	0
5	2600	12.079916140068	0
5	2613	12.080124140068	0
5	2613	12.080124140068	0
5	2631	12.090260200916	0
5	2631	12.090260200916	0
5	2644	12.090468200916	0
5	2644	12.090468200916	0
5	2664	12.127265778914	0
5	2664	12.127265778914	0
5	2673	12.127473778914	0
5	2673	12.127473778914	0
5	2687	12.171518936497	0
5	2687	12.171518936497	2
5	2688	12.171518936497	2
5	2688	12.171518936497	0
5	2691	12.171518936497	0
5	2691	12.171518936497	0
5	2697	12.171726936497	0
5	2697	12.171726936497	0
5	2724	12.179916140068	0
5	2724	12.179916140068	0
5	2737	12.180124140068	0
5	2737	12.180124140068	0
5	2755	12.190260200916	0
5	2755	12.190260200916	0
5	2768	12.190468200916	0
5	2768	12.190468200916	0
5	2788	12.227265778914	0
5	2788	12.227265778914	0
5	2797	12.227473778914	0
5	2797	12.227473778914	0
5	2811	12.271518936497	0
5	2811	12.271518936497	2
5	2812	12.271518936497	2
5	2812	12.271518936497	0
5	2815	12.271518936497	0
5	2815	12.271518936497	0
5	2821	12.271726936497	0
5	2821	12.271726936497	0
5	2848	12.279916140068	0
5	2848	12.279916140068	0
5	2861	12.280124140068	0
5	2861	12.280124140068	0
5	2879	12.290260200916	0
5	2879	12.290260200916	0
5	2892	12.290468200916	0
5	2892	12.290468200916	0
5	2912	12.327265778914	0
5	2912	12.327265778914	0
5	2921	12.327473778914	0
5	2921	12.327473778914	0
5	2935	12.371518936497	0
5	2935	12.371518936497	2
5	2936	12.371518936497	2
5	2936	12.371518936497	0
5	2939	12.371518936497	0
5	2939	12.371518936497	0
5	2945	12.371726936497	0
5	2945	12.371726936497	0
5	2972	12.379916140068	0
5	2972	12.379916140068	0
6	2	1	0
6	2	1	0
6	12	1.171518936497	0
6	12	1.171518936497	0
6	15	1.171998936497	0
6	15	1.171998936497	0
6	27	1.371518936497	0
6	27	1.371518936497	0
6	30	1.371726936497	0
6	30	1.371726936497	0
6	42	1.571518936497	0
6	42	1.571518936497	0
6	45	1.571726936497	0
6	45	1.571726936497	0
6	57	1.771518936497	0
6	57	1.771518936497	0
6	60	1.771998936497	0
6	60	1.771998936497	0
6	75	2.071518936497	0
6	75	2.071518936497	0
6	78	2.071726936497	0
6	78	2.071726936497	0
6	92	2.371518936497	0
6	92	2.371518936497	0
6	95	2.371998936497	0
6	95	2.371998936497	0
6	109	2.671518936497	0
6	109	2.671518936497	0
6	112	2.671726936497	0
6	112	2.671726936497	0
6	126	2.971518936497	0
6	126	2.971518936497	0
6	129	2.971998936497	0
6	129	2.971998936497	0
6	140	3.071518936497	0
6	140	3.071518936497	0
6	143	3.071726936497	0
6	143	3.071726936497	0
6	153	3.171518936497	0
6	153	3.171518936497	0
6	156	3.171726936497	0
6	156	3.171726936497	0
6	166	3.271518936497	0
6	166	3.271518936497	0
6	169	3.271726936497	0
6	169	3.271726936497	0
6	179	3.371518936497	0
6	179	3.371518936497	0
6	182	3.371726936497	0
6	182	3.371726936497	0
6	206	4.071518936497	0
6	206	4.071518936497	0
6	210	4.071998936497	0
6	210	4.071998936497	0
6	228	4.127265675692	0
6	228	4.127265675692	0
6	231	4.127745675692	0
6	231	4.127745675692	0
6	253	4.327265675692	0
6	253	4.327265675692	0
6	256	4.327473675692	0
6	256	4.327473675692	0
6	278	4.527265675692	0
6	278	4.527265675692	0
6	281	4.527473675692	0
6	281	4.527473675692	0
6	303	4.727265675692	0
6	303	4.727265675692	0
6	306	4.727745675692	0
6	306	4.727745675692	0
6	319	4.771518936497	0
6	319	4.771518936497	0
6	323	4.771998936497	0
6	323	4.771998936497	0
6	350	5.027265697397	0
6	350	5.027265697397	0
6	353	5.027473697397	0
6	353	5.027473697397	0
6	366	5.071518936497	0
6	366	5.071518936497	0
6	370	5.071726936497	0
6	370	5.071726936497	0
6	396	5.327265697397	0
6	396	5.327265697397	0
6	399	5.327745697397	0
6	399	5.327745697397	0
6	412	5.371518936497	0
6	412	5.371518936497	0
6	416	5.371998936497	0
6	416	5.371998936497	0
6	442	5.627265697397	0
6	442	5.627265697397	0
6	445	5.627473697397	0
6	445	5.627473697397	0
6	458	5.671518936497	0
6	458	5.671518936497	0
6	462	5.671726936497	0
6	462	5.671726936497	0
6	488	5.927265697397	0
6	488	5.927265697397	0
6	491	5.927745697397	0
6	491	5.927745697397	0
6	504	5.971518936497	0
6	504	5.971518936497	0
6	508	5.971998936497	0
6	508	5.971998936497	0
6	527	6.027265716296	0
6	527	6.027265716296	0
6	530	6.027473716296	0
6	530	6.027473716296	0
6	543	6.071518936497	0
6	543	6.071518936497	0
6	547	6.071726936497	0
6	547	6.071726936497	0
6	565	6.127265716296	0
6	565	6.127265716296	0
6	568	6.127473716296	0
6	568	6.127473716296	0
6	581	6.171518936497	0
6	581	6.171518936497	0
6	585	6.171726936497	0
6	585	6.171726936497	0
6	603	6.227265716296	0
6	603	6.227265716296	0
6	606	6.227473716296	0
6	606	6.227473716296	0
6	619	6.271518936497	0
6	619	6.271518936497	0
6	623	6.271726936497	0
6	623	6.271726936497	0
6	641	6.327265716296	0
6	641	6.327265716296	0
6	644	6.327473716296	0
6	644	6.327473716296	0
6	657	6.371518936497	0
6	657	6.371518936497	0
6	661	6.371726936497	0
6	661	6.371726936497	0
6	706	7.027265732154	0
6	706	7.027265732154	0
6	714	7.027745732154	0
6	714	7.027745732154	0
6	727	7.071518936497	0
6	727	7.071518936497	0
6	732	7.071998936497	0
6	732	7.071998936497	0
6	759	7.17991599931	0
6	759	7.17991599931	0
6	767	7.18039599931	0
6	767	7.18039599931	0
6	794	7.37991599931	0
6	794	7.37991599931	0
6	802	7.38012399931	0
6	802	7.38012399931	0
6	829	7.57991599931	0
6	829	7.57991599931	0
6	837	7.58012399931	0
6	837	7.58012399931	0
6	862	7.727265732154	0
6	862	7.727265732154	0
6	870	7.727745732154	0
6	870	7.727745732154	0
6	883	7.771518936497	0
6	883	7.771518936497	0
6	888	7.771998936497	0
6	888	7.771998936497	0
6	909	7.77991599931	0
6	909	7.77991599931	0
6	917	7.78039599931	0
6	917	7.78039599931	0
6	950	8.027265747034	0
6	950	8.027265747034	0
6	958	8.027473747034	0
6	958	8.027473747034	0
6	971	8.071518936497	0
6	971	8.071518936497	0
6	976	8.071726936497	0
6	976	8.071726936497	0
6	997	8.079916037021	0
6	997	8.079916037021	0
6	1005	8.080124037021	0
6	1005	8.080124037021	0
6	1037	8.327265747034	0
6	1037	8.327265747034	0
6	1045	8.327745747034	0
6	1045	8.327745747034	0
6	1058	8.371518936497	0
6	1058	8.371518936497	0
6	1063	8.371998936497	0
6	1063	8.371998936497	0
6	1084	8.379916037021	0
6	1084	8.379916037021	0
6	1092	8.380396037021	0
6	1092	8.380396037021	0
6	1124	8.627265747034	0
6	1124	8.627265747034	0
6	1132	8.627473747034	0
6	1132	8.627473747034	0
6	1145	8.671518936497	0
6	1145	8.671518936497	0
6	1150	8.671726936497	0
6	1150	8.671726936497	0
6	1171	8.679916037021	0
6	1171	8.679916037021	0
6	1179	8.680124037021	0
6	1179	8.680124037021	0
6	1211	8.927265747034	0
6	1211	8.927265747034	0
6	1219	8.927745747034	0
6	1219	8.927745747034	0
6	1232	8.971518936497	0
6	1232	8.971518936497	0
6	1237	8.971998936497	0
6	1237	8.971998936497	0
6	1258	8.979916037021	0
6	1258	8.979916037021	0
6	1266	8.980396037021	0
6	1266	8.980396037021	0
6	1287	9.027265761647	0
6	1287	9.027265761647	0
6	1295	9.027473761647	0
6	1295	9.027473761647	0
6	1308	9.071518936497	0
6	1308	9.071518936497	0
6	1313	9.071726936497	0
6	1313	9.071726936497	0
6	1334	9.079916072914	0
6	1334	9.079916072914	0
6	1342	9.080124072914	0
6	1342	9.080124072914	0
6	1362	9.127265761647	0
6	1362	9.127265761647	0
6	1370	9.127473761647	0
6	1370	9.127473761647	0
6	1383	9.171518936497	0
6	1383	9.171518936497	0
6	1388	9.171726936497	0
6	1388	9.171726936497	0
6	1409	9.179916072914	0
6	1409	9.179916072914	0
6	1417	9.180124072914	0
6	1417	9.180124072914	0
6	1437	9.227265761647	0
6	1437	9.227265761647	0
6	1445	9.227473761647	0
6	1445	9.227473761647	0
6	1458	9.271518936497	0
6	1458	9.271518936497	0
6	1463	9.271726936497	0
6	1463	9.271726936497	0
6	1484	9.279916072914	0
6	1484	9.279916072914	0
6	1492	9.280124072914	0
6	1492	9.280124072914	0
6	1512	9.327265761647	0
6	1512	9.327265761647	0
6	1520	9.327473761647	0
6	1520	9.327473761647	0
6	1533	9.371518936497	0
6	1533	9.371518936497	0
6	1538	9.371726936497	0
6	1538	9.371726936497	0
6	1559	9.379916072914	0
6	1559	9.379916072914	0
6	1567	9.380124072914	0
6	1567	9.380124072914	0
6	1625	10.027265768965	0
6	1625	10.027265768965	0
6	1634	10.027745768965	0
6	1634	10.027745768965	0
6	1652	10.071518936497	0
6	1652	10.071518936497	0
6	1658	10.071998936497	0
6	1658	10.071998936497	0
6	1685	10.079916100053	0
6	1685	10.079916100053	0
6	1698	10.080396100053	0
6	1698	10.080396100053	0
6	1723	10.19026012723	0
6	1723	10.19026012723	0
6	1736	10.19074012723	0
6	1736	10.19074012723	0
6	1768	10.39026012723	0
6	1768	10.39026012723	0
6	1781	10.39046812723	0
6	1781	10.39046812723	0
6	1813	10.59026012723	0
6	1813	10.59026012723	0
6	1826	10.59046812723	0
6	1826	10.59046812723	0
6	1854	10.727265768965	0
6	1854	10.727265768965	0
6	1863	10.727745768965	0
6	1863	10.727745768965	0
6	1881	10.771518936497	0
6	1881	10.771518936497	0
6	1887	10.771998936497	0
6	1887	10.771998936497	0
6	1914	10.779916100053	0
6	1914	10.779916100053	0
6	1927	10.780396100053	0
6	1927	10.780396100053	0
6	1944	10.79026012723	0
6	1944	10.79026012723	0
6	1958	10.79074012723	0
6	1958	10.79074012723	0
6	1995	11.02726577458	0
6	1995	11.02726577458	0
6	2004	11.02747377458	0
6	2004	11.02747377458	0
6	2022	11.071518936497	0
6	2022	11.071518936497	0
6	2028	11.071726936497	0
6	2028	11.071726936497	0
6	2055	11.079916122576	0
6	2055	11.079916122576	0
6	2068	11.080124122576	0
6	2068	11.080124122576	0
6	2086	11.090260167622	0
6	2086	11.090260167622	0
6	2099	11.090468167622	0
6	2099	11.090468167622	0
6	2135	11.32726577458	0
6	2135	11.32726577458	0
6	2144	11.32774577458	0
6	2144	11.32774577458	0
6	2162	11.371518936497	0
6	2162	11.371518936497	0
6	2168	11.371998936497	0
6	2168	11.371998936497	0
6	2195	11.379916122576	0
6	2195	11.379916122576	0
6	2208	11.380396122576	0
6	2208	11.380396122576	0
6	2225	11.390260167622	0
6	2225	11.390260167622	0
6	2239	11.390740167622	0
6	2239	11.390740167622	0
6	2275	11.62726577458	0
6	2275	11.62726577458	0
6	2284	11.62747377458	0
6	2284	11.62747377458	0
6	2302	11.671518936497	0
6	2302	11.671518936497	0
6	2308	11.671726936497	0
6	2308	11.671726936497	0
6	2335	11.679916122576	0
6	2335	11.679916122576	0
6	2348	11.680124122576	0
6	2348	11.680124122576	0
6	2366	11.690260167622	0
6	2366	11.690260167622	0
6	2379	11.690468167622	0
6	2379	11.690468167622	0
6	2415	11.92726577458	0
6	2415	11.92726577458	0
6	2424	11.92774577458	0
6	2424	11.92774577458	0
6	2442	11.971518936497	0
6	2442	11.971518936497	0
6	2448	11.971998936497	0
6	2448	11.971998936497	0
6	2475	11.979916122576	0
6	2475	11.979916122576	0
6	2488	11.980396122576	0
6	2488	11.980396122576	0
6	2505	11.990260167622	0
6	2505	11.990260167622	0
6	2519	11.990740167622	0
6	2519	11.990740167622	0
6	2540	12.027265778914	0
6	2540	12.027265778914	0
6	2549	12.027473778914	0
6	2549	12.027473778914	0
6	2567	12.071518936497	0
6	2567	12.071518936497	0
6	2573	12.071726936497	0
6	2573	12.071726936497	0
6	2600	12.079916140068	0
6	2600	12.079916140068	0
6	2613	12.080124140068	0
6	2613	12.080124140068	0
6	2631	12.090260200916	0
6	2631	12.090260200916	0
6	2644	12.090468200916	0
6	2644	12.090468200916	0
6	2664	12.127265778914	0
6	2664	12.127265778914	0
6	2673	12.127473778914	0
6	2673	12.127473778914	0
6	2691	12.171518936497	0
6	2691	12.171518936497	0
6	2697	12.171726936497	0
6	2697	12.171726936497	0
6	2724	12.179916140068	0
6	2724	12.179916140068	0
6	2737	12.180124140068	0
6	2737	12.180124140068	0
6	2755	12.190260200916	0
6	2755	12.190260200916	0
6	2768	12.190468200916	0
6	2768	12.190468200916	0
6	2788	12.227265778914	0
6	2788	12.227265778914	0
6	2797	12.227473778914	0
6	2797	12.227473778914	0
6	2815	12.271518936497	0
6	2815	12.271518936497	0
6	2821	12.271726936497	0
6	2821	12.271726936497	0
6	2848	12.279916140068	0
6	2848	12.279916140068	0
6	2861	12.280124140068	0
6	2861	12.280124140068	0
6	2879	12.290260200916	0
6	2879	12.290260200916	0
6	2892	12.290468200916	0
6	2892	12.290468200916	0
6	2912	12.327265778914	0
6	2912	12.327265778914	0
6	2921	12.327473778914	0
6	2921	12.327473778914	0
6	2939	12.371518936497	0
6	2939	12.371518936497	0
6	2945	12.371726936497	0
6	2945	12.371726936497	0
6	2972	12.379916140068	0
6	2972	12.379916140068	0
7	2	1	0
7	2	1	0
7	12	1.171518936497	0
7	12	1.171518936497	0
7	15	1.171998936497	0
7	15	1.171998936497	0
7	27	1.371518936497	0
7	27	1.371518936497	0
7	30	1.371726936497	0
7	30	1.371726936497	0
7	42	1.571518936497	0
7	42	1.571518936497	0
7	45	1.571726936497	0
7	45	1.571726936497	0
7	57	1.771518936497	0
7	57	1.771518936497	0
7	60	1.771998936497	0
7	60	1.771998936497	0
7	75	2.071518936497	0
7	75	2.071518936497	0
7	78	2.071726936497	0
7	78	2.071726936497	0
7	92	2.371518936497	0
7	92	2.371518936497	0
7	95	2.371998936497	0
7	95	2.371998936497	0
7	109	2.671518936497	0
7	109	2.671518936497	0
7	112	2.671726936497	0
7	112	2.671726936497	0
7	126	2.971518936497	0
7	126	2.971518936497	0
7	129	2.971998936497	0
7	129	2.971998936497	0
7	140	3.071518936497	0
7	140	3.071518936497	0
7	143	3.071726936497	0
7	143	3.071726936497	0
7	153	3.171518936497	0
7	153	3.171518936497	0
7	156	3.171726936497	0
7	156	3.171726936497	0
7	166	3.271518936497	0
7	166	3.271518936497	0
7	169	3.271726936497	0
7	169	3.271726936497	0
7	179	3.371518936497	0
7	179	3.371518936497	0
7	182	3.371726936497	0
7	182	3.371726936497	0
7	206	4.071518936497	0
7	206	4.071518936497	0
7	210	4.071998936497	0
7	210	4.071998936497	0
7	228	4.127265675692	0
7	228	4.127265675692	0
7	231	4.127745675692	0
7	231	4.127745675692	0
7	253	4.327265675692	0
7	253	4.327265675692	0
7	256	4.327473675692	0
7	256	4.327473675692	0
7	278	4.527265675692	0
7	278	4.527265675692	0
7	281	4.527473675692	0
7	281	4.527473675692	0
7	303	4.727265675692	0
7	303	4.727265675692	0
7	306	4.727745675692	0
7	306	4.727745675692	0
7	319	4.771518936497	0
7	319	4.771518936497	0
7	323	4.771998936497	0
7	323	4.771998936497	0
7	350	5.027265697397	0
7	350	5.027265697397	0
7	353	5.027473697397	0
7	353	5.027473697397	0
7	366	5.071518936497	0
7	366	5.071518936497	0
7	370	5.071726936497	0
7	370	5.071726936497	0
7	396	5.327265697397	0
7	396	5.327265697397	0
7	399	5.327745697397	0
7	399	5.327745697397	0
7	412	5.371518936497	0
7	412	5.371518936497	0
7	416	5.371998936497	0
7	416	5.371998936497	0
7	442	5.627265697397	0
7	442	5.627265697397	0
7	445	5.627473697397	0
7	445	5.627473697397	0
7	458	5.671518936497	0
7	458	5.671518936497	0
7	462	5.671726936497	0
7	462	5.671726936497	0
7	488	5.927265697397	0
7	488	5.927265697397	0
7	491	5.927745697397	0
7	491	5.927745697397	0
7	504	5.971518936497	0
7	504	5.971518936497	0
7	508	5.971998936497	0
7	508	5.971998936497	0
7	527	6.027265716296	0
7	527	6.027265716296	0
7	530	6.027473716296	0
7	530	6.027473716296	0
7	543	6.071518936497	0
7	543	6.071518936497	0
7	547	6.071726936497	0
7	547	6.071726936497	0
7	565	6.127265716296	0
7	565	6.127265716296	0
7	568	6.127473716296	0
7	568	6.127473716296	0
7	581	6.171518936497	0
7	581	6.171518936497	0
7	585	6.171726936497	0
7	585	6.171726936497	0
7	603	6.227265716296	0
7	603	6.227265716296	0
7	606	6.227473716296	0
7	606	6.227473716296	0
7	619	6.271518936497	0
7	619	6.271518936497	0
7	623	6.271726936497	0
7	623	6.271726936497	0
7	641	6.327265716296	0
7	641	6.327265716296	0
7	644	6.327473716296	0
7	644	6.327473716296	0
7	657	6.371518936497	0
7	657	6.371518936497	0
7	661	6.371726936497	0
7	661	6.371726936497	0
7	706	7.027265732154	0
7	706	7.027265732154	0
7	714	7.027745732154	0
7	714	7.027745732154	0
7	727	7.071518936497	0
7	727	7.071518936497	0
7	732	7.071998936497	0
7	732	7.071998936497	0
7	759	7.17991599931	0
7	759	7.17991599931	0
7	767	7.18039599931	0
7	767	7.18039599931	0
7	794	7.37991599931	0
7	794	7.37991599931	0
7	802	7.38012399931	0
7	802	7.38012399931	0
7	829	7.57991599931	0
7	829	7.57991599931	0
7	837	7.58012399931	0
7	837	7.58012399931	0
7	862	7.727265732154	0
7	862	7.727265732154	0
7	870	7.727745732154	0
7	870	7.727745732154	0
7	883	7.771518936497	0
7	883	7.771518936497	0
7	888	7.771998936497	0
7	888	7.771998936497	0
7	909	7.77991599931	0
7	909	7.77991599931	0
7	917	7.78039599931	0
7	917	7.78039599931	0
7	950	8.027265747034	0
7	950	8.027265747034	0
7	958	8.027473747034	0
7	958	8.027473747034	0
7	971	8.071518936497	0
7	971	8.071518936497	0
7	976	8.071726936497	0
7	976	8.071726936497	0
7	997	8.079916037021	0
7	997	8.079916037021	0
7	1005	8.080124037021	0
7	1005	8.080124037021	0
7	1037	8.327265747034	0
7	1037	8.327265747034	0
7	1045	8.327745747034	0
7	1045	8.327745747034	0
7	1058	8.371518936497	0
7	1058	8.371518936497	0
7	1063	8.371998936497	0
7	1063	8.371998936497	0
7	1084	8.379916037021	0
7	1084	8.379916037021	0
7	1092	8.380396037021	0
7	1092	8.380396037021	0
7	1124	8.627265747034	0
7	1124	8.627265747034	0
7	1132	8.627473747034	0
7	1132	8.627473747034	0
7	1145	8.671518936497	0
7	1145	8.671518936497	0
7	1150	8.671726936497	0
7	1150	8.671726936497	0
7	1171	8.679916037021	0
7	1171	8.679916037021	0
7	1179	8.680124037021	0
7	1179	8.680124037021	0
7	1211	8.927265747034	0
7	1211	8.927265747034	0
7	1219	8.927745747034	0
7	1219	8.927745747034	0
7	1232	8.971518936497	0
7	1232	8.971518936497	0
7	1237	8.971998936497	0
7	1237	8.971998936497	0
7	1258	8.979916037021	0
7	1258	8.979916037021	0
7	1266	8.980396037021	0
7	1266	8.980396037021	0
7	1287	9.027265761647	0
7	1287	9.027265761647	0
7	1295	9.027473761647	0
7	1295	9.027473761647	0
7	1308	9.071518936497	0
7	1308	9.071518936497	0
7	1313	9.071726936497	0
7	1313	9.071726936497	0
7	1334	9.079916072914	0
7	1334	9.079916072914	0
7	1342	9.080124072914	0
7	1342	9.080124072914	0
7	1362	9.127265761647	0
7	1362	9.127265761647	0
7	1370	9.127473761647	0
7	1370	9.127473761647	0
7	1383	9.171518936497	0
7	1383	9.171518936497	0
7	1388	9.171726936497	0
7	1388	9.171726936497	0
7	1409	9.179916072914	0
7	1409	9.179916072914	0
7	1417	9.180124072914	0
7	1417	9.180124072914	0
7	1437	9.227265761647	0
7	1437	9.227265761647	0
7	1445	9.227473761647	0
7	1445	9.227473761647	0
7	1458	9.271518936497	0
7	1458	9.271518936497	0
7	1463	9.271726936497	0
7	1463	9.271726936497	0
7	1484	9.279916072914	0
7	1484	9.279916072914	0
7	1492	9.280124072914	0
7	1492	9.280124072914	0
7	1512	9.327265761647	0
7	1512	9.327265761647	0
7	1520	9.327473761647	0
7	1520	9.327473761647	0
7	1533	9.371518936497	0
7	1533	9.371518936497	0
7	1538	9.371726936497	0
7	1538	9.371726936497	0
7	1559	9.379916072914	0
7	1559	9.379916072914	0
7	1567	9.380124072914	0
7	1567	9.380124072914	0
7	1625	10.027265768965	0
7	1625	10.027265768965	0
7	1634	10.027745768965	0
7	1634	10.027745768965	0
7	1652	10.071518936497	0
7	1652	10.071518936497	0
7	1658	10.071998936497	0
7	1658	10.071998936497	0
7	1685	10.079916100053	0
7	1685	10.079916100053	0
7	1698	10.080396100053	0
7	1698	10.080396100053	0
7	1723	10.19026012723	0
7	1723	10.19026012723	0
7	1736	10.19074012723	0
7	1736	10.19074012723	0
7	1768	10.39026012723	0
7	1768	10.39026012723	0
7	1781	10.39046812723	0
7	1781	10.39046812723	0
7	1813	10.59026012723	0
7	1813	10.59026012723	0
7	1826	10.59046812723	0
7	1826	10.59046812723	0
7	1854	10.727265768965	0
7	1854	10.727265768965	0
7	1863	10.727745768965	0
7	1863	10.727745768965	0
7	1881	10.771518936497	0
7	1881	10.771518936497	0
7	1887	10.771998936497	0
7	1887	10.771998936497	0
7	1914	10.779916100053	0
7	1914	10.779916100053	0
7	1927	10.780396100053	0
7	1927	10.780396100053	0
7	1944	10.79026012723	0
7	1944	10.79026012723	0
7	1958	10.79074012723	0
7	1958	10.79074012723	0
7	1995	11.02726577458	0
7	1995	11.02726577458	0
7	2004	11.02747377458	0
7	2004	11.02747377458	0
7	2022	11.071518936497	0
7	2022	11.071518936497	0
7	2028	11.071726936497	0
7	2028	11.071726936497	0
7	2055	11.079916122576	0
7	2055	11.079916122576	0
7	2068	11.080124122576	0
7	2068	11.080124122576	0
7	2086	11.090260167622	0
7	2086	11.090260167622	0
7	2099	11.090468167622	0
7	2099	11.090468167622	0
7	2135	11.32726577458	0
7	2135	11.32726577458	0
7	2144	11.32774577458	0
7	2144	11.32774577458	0
7	2162	11.371518936497	0
7	2162	11.371518936497	0
7	2168	11.371998936497	0
7	2168	11.371998936497	0
7	2195	11.379916122576	0
7	2195	11.379916122576	0
7	2208	11.380396122576	0
7	2208	11.380396122576	0
7	2225	11.390260167622	0
7	2225	11.390260167622	0
7	2239	11.390740167622	0
7	2239	11.390740167622	0
7	2275	11.62726577458	0
7	2275	11.62726577458	0
7	2284	11.62747377458	0
7	2284	11.62747377458	0
7	2302	11.671518936497	0
7	2302	11.671518936497	0
7	2308	11.671726936497	0
7	2308	11.671726936497	0
7	2335	11.679916122576	0
7	2335	11.679916122576	0
7	2348	11.680124122576	0
7	2348	11.680124122576	0
7	2366	11.690260167622	0
7	2366	11.690260167622	0
7	2379	11.690468167622	0
7	2379	11.690468167622	0
7	2415	11.92726577458	0
7	2415	11.92726577458	0
7	2424	11.92774577458	0
7	2424	11.92774577458	0
7	2442	11.971518936497	0
7	2442	11.971518936497	0
7	2448	11.971998936497	0
7	2448	11.971998936497	0
7	2475	11.979916122576	0
7	2475	11.979916122576	0
7	2488	11.980396122576	0
7	2488	11.980396122576	0
7	2505	11.990260167622	0
7	2505	11.990260167622	0
7	2519	11.990740167622	0
7	2519	11.990740167622	0
7	2540	12.027265778914	0
7	2540	12.027265778914	0
7	2549	12.027473778914	0
7	2549	12.027473778914	0
7	2567	12.071518936497	0
7	2567	12.071518936497	0
7	2573	12.071726936497	0
7	2573	12.071726936497	0
7	2600	12.079916140068	0
7	2600	12.079916140068	0
7	2613	12.080124140068	0
7	2613	12.080124140068	0
7	2631	12.090260200916	0
7	2631	12.090260200916	0
7	2644	12.090468200916	0
7	2644	12.090468200916	0
7	2664	12.127265778914	0
7	2664	12.127265778914	0
7	2673	12.127473778914	0
7	2673	12.127473778914	0
7	2691	12.171518936497	0
7	2691	12.171518936497	0
7	2697	12.171726936497	0
7	2697	12.171726936497	0
7	2724	12.179916140068	0
7	2724	12.179916140068	0
7	2737	12.180124140068	0
7	2737	12.180124140068	0
7	2755	12.190260200916	0
7	2755	12.190260200916	0
7	2768	12.190468200916	0
7	2768	12.190468200916	0
7	2788	12.227265778914	0
7	2788	12.227265778914	0
7	2797	12.227473778914	0
7	2797	12.227473778914	0
7	2815	12.271518936497	0
7	2815	12.271518936497	0
7	2821	12.271726936497	0
7	2821	12.271726936497	0
7	2848	12.279916140068	0
7	2848	12.279916140068	0
7	2861	12.280124140068	0
7	2861	12.280124140068	0
7	2879	12.290260200916	0
7	2879	12.290260200916	0
7	2892	12.290468200916	0
7	2892	12.290468200916	0
7	2912	12.327265778914	0
7	2912	12.327265778914	0
7	2921	12.327473778914	0
7	2921	12.327473778914	0
7	2939	12.371518936497	0
7	2939	12.371518936497	0
7	2945	12.371726936497	0
7	2945	12.371726936497	0
7	2972	12.379916140068	0
7	2972	12.379916140068	0
8	8	1.171518936497	323
8	23	1.371518936497	123
8	38	1.571518936497	123
8	53	1.771518936497	323
8	71	2.071518936497	123
8	88	2.371518936497	323
8	105	2.671518936497	123
8	122	2.971518936497	323
8	136	3.071518936497	123
8	149	3.171518936497	123
8	162	3.271518936497	123
8	175	3.371518936497	123
8	202	4.071518936497	323
8	315	4.771518936497	323
8	362	5.071518936497	123
8	408	5.371518936497	323
8	454	5.671518936497	123
8	500	5.971518936497	323
8	539	6.071518936497	123
8	577	6.171518936497	123
8	615	6.271518936497	123
8	653	6.371518936497	123
8	723	7.071518936497	323
8	879	7.771518936497	323
8	967	8.071518936497	123
8	1054	8.371518936497	323
8	1141	8.671518936497	123
8	1228	8.971518936497	323
8	1304	9.071518936497	123
8	1379	9.171518936497	123
8	1454	9.271518936497	123
8	1529	9.371518936497	123
8	1648	10.071518936497	323
8	1877	10.771518936497	323
8	2018	11.071518936497	123
8	2158	11.371518936497	323
8	2298	11.671518936497	123
8	2438	11.971518936497	323
8	2563	12.071518936497	123
8	2687	12.171518936497	123
8	2811	12.271518936497	123
8	2935	12.371518936497	123
9	11	1.171518936497	323
9	26	1.371518936497	123
9	41	1.571518936497	123
9	56	1.771518936497	323
9	74	2.071518936497	123
9	91	2.371518936497	323
9	108	2.671518936497	123
9	125	2.971518936497	323
9	139	3.071518936497	123
9	152	3.171518936497	123
9	165	3.271518936497	123
9	178	3.371518936497	123
9	205	4.071518936497	323
9	318	4.771518936497	323
9	365	5.071518936497	123
9	411	5.371518936497	323
9	457	5.671518936497	123
9	503	5.971518936497	323
9	542	6.071518936497	123
9	580	6.171518936497	123
9	618	6.271518936497	123
9	656	6.371518936497	123
9	726	7.071518936497	323
9	882	7.771518936497	323
9	970	8.071518936497	123
9	1057	8.371518936497	323
9	1144	8.671518936497	123
9	1231	8.971518936497	323
9	1307	9.071518936497	123
9	1382	9.171518936497	123
9	1457	9.271518936497	123
9	1532	9.371518936497	123
9	1651	10.071518936497	323
9	1880	10.771518936497	323
9	2021	11.071518936497	123
9	2161	11.371518936497	323
9	2301	11.671518936497	123
9	2441	11.971518936497	323
9	2566	12.071518936497	123
9	2690	12.171518936497	123
9	2814	12.271518936497	123
9	2938	12.371518936497	123
10	12	1.171518936497	1
10	13	1.171518936497	2
10	14	1.171998936497	1
10	15	1.171998936497	0
10	27	1.371518936497	1
10	28	1.371518936497	2
10	29	1.371726936497	1
10	30	1.371726936497	0
10	42	1.571518936497	1
10	43	1.571518936497	2
10	44	1.571726936497	1
10	45	1.571726936497	0
10	57	1.771518936497	1
10	58	1.771518936497	2
10	59	1.771998936497	1
10	60	1.771998936497	0
10	75	2.071518936497	1
10	76	2.071518936497	2
10	77	2.071726936497	1
10	78	2.071726936497	0
10	92	2.371518936497	1
10	93	2.371518936497	2
10	94	2.371998936497	1
10	95	2.371998936497	0
10	109	2.671518936497	1
10	110	2.671518936497	2
10	111	2.671726936497	1
10	112	2.671726936497	0
10	126	2.971518936497	1
10	127	2.971518936497	2
10	128	2.971998936497	1
10	129	2.971998936497	0
10	140	3.071518936497	1
10	141	3.071518936497	2
10	142	3.071726936497	1
10	143	3.071726936497	0
10	153	3.171518936497	1
10	154	3.171518936497	2
10	155	3.171726936497	1
10	156	3.171726936497	0
10	166	3.271518936497	1
10	167	3.271518936497	2
10	168	3.271726936497	1
10	169	3.271726936497	0
10	179	3.371518936497	1
10	180	3.371518936497	2
10	181	3.371726936497	1
10	182	3.371726936497	0
10	206	4.071518936497	1
10	207	4.071518936497	2
10	209	4.071998936497	1
10	210	4.071998936497	0
10	319	4.771518936497	1
10	320	4.771518936497	2
10	322	4.771998936497	1
10	323	4.771998936497	0
10	366	5.071518936497	1
10	367	5.071518936497	2
10	369	5.071726936497	1
10	370	5.071726936497	0
10	412	5.371518936497	1
10	413	5.371518936497	2
10	415	5.371998936497	1
10	416	5.371998936497	0
10	458	5.671518936497	1
10	459	5.671518936497	2
10	461	5.671726936497	1
10	462	5.671726936497	0
10	504	5.971518936497	1
10	505	5.971518936497	2
10	507	5.971998936497	1
10	508	5.971998936497	0
10	543	6.071518936497	1
10	544	6.071518936497	2
10	546	6.071726936497	1
10	547	6.071726936497	0
10	581	6.171518936497	1
10	582	6.171518936497	2
10	584	6.171726936497	1
10	585	6.171726936497	0
10	619	6.271518936497	1
10	620	6.271518936497	2
10	622	6.271726936497	1
10	623	6.271726936497	0
10	657	6.371518936497	1
10	658	6.371518936497	2
10	660	6.371726936497	1
10	661	6.371726936497	0
10	727	7.071518936497	1
10	728	7.071518936497	2
10	731	7.071998936497	1
10	732	7.071998936497	0
10	883	7.771518936497	1
10	884	7.771518936497	2
10	887	7.771998936497	1
10	888	7.771998936497	0
10	971	8.071518936497	1
10	972	8.071518936497	2
10	975	8.071726936497	1
10	976	8.071726936497	0
10	1058	8.371518936497	1
10	1059	8.371518936497	2
10	1062	8.371998936497	1
10	1063	8.371998936497	0
10	1145	8.671518936497	1
10	1146	8.671518936497	2
10	1149	8.671726936497	1
10	1150	8.671726936497	0
10	1232	8.971518936497	1
10	1233	8.971518936497	2
10	1236	8.971998936497	1
10	1237	8.971998936497	0
10	1308	9.071518936497	1
10	1309	9.071518936497	2
10	1312	9.071726936497	1
10	1313	9.071726936497	0
10	1383	9.171518936497	1
10	1384	9.171518936497	2
10	1387	9.171726936497	1
10	1388	9.171726936497	0
10	1458	9.271518936497	1
10	1459	9.271518936497	2
10	1462	9.271726936497	1
10	1463	9.271726936497	0
10	1533	9.371518936497	1
10	1534	9.371518936497	2
10	1537	9.371726936497	1
10	1538	9.371726936497	0
10	1652	10.071518936497	1
10	1653	10.071518936497	2
10	1657	10.071998936497	1
10	1658	10.071998936497	0
10	1881	10.771518936497	1
10	1882	10.771518936497	2
10	1886	10.771998936497	1
10	1887	10.771998936497	0
10	2022	11.071518936497	1
10	2023	11.071518936497	2
10	2027	11.071726936497	1
10	2028	11.071726936497	0
10	2162	11.371518936497	1
10	2163	11.371518936497	2
10	2167	11.371998936497	1
10	2168	11.371998936497	0
10	2302	11.671518936497	1
10	2303	11.671518936497	2
10	2307	11.671726936497	1
10	2308	11.671726936497	0
10	2442	11.971518936497	1
10	2443	11.971518936497	2
10	2447	11.971998936497	1
10	2448	11.971998936497	0
10	2567	12.071518936497	1
10	2568	12.071518936497	2
10	2572	12.071726936497	1
10	2573	12.071726936497	0
10	2691	12.171518936497	1
10	2692	12.171518936497	2
10	2696	12.171726936497	1
10	2697	12.171726936497	0
10	2815	12.271518936497	1
10	2816	12.271518936497	2
10	2820	12.271726936497	1
10	2821	12.271726936497	0
10	2939	12.371518936497	1
10	2940	12.371518936497	2
10	2944	12.371726936497	1
10	2945	12.371726936497	0
11	196	4	0
11	196	4	2
11	226	4.127265629452	3
11	230	4.127745629452	2
11	251	4.327265629452	3
11	255	4.327473629452	2
11	276	4.527265629452	3
11	280	4.527473629452	2
11	301	4.727265629452	3
11	305	4.727745629452	2
11	348	5.027265629452	3
11	352	5.027473629452	2
11	394	5.327265629452	3
11	398	5.327745629452	2
11	440	5.627265629452	3
11	444	5.627473629452	2
11	486	5.927265629452	3
11	490	5.927745629452	2
11	525	6.027265629452	3
11	529	6.027473629452	2
11	563	6.127265629452	3
11	567	6.127473629452	2
11	601	6.227265629452	3
11	605	6.227473629452	2
11	639	6.327265629452	3
11	643	6.327473629452	2
11	703	7.027265629452	3
11	708	7.027745629452	2
11	859	7.727265629452	3
11	864	7.727745629452	2
11	947	8.027265629452	3
11	952	8.027473629452	2
11	1034	8.327265629452	3
11	1039	8.327745629452	2
11	1121	8.627265629452	3
11	1126	8.627473629452	2
11	1208	8.927265629452	3
11	1213	8.927745629452	2
11	1284	9.027265629452	3
11	1289	9.027473629452	2
11	1359	9.127265629452	3
11	1364	9.127473629452	2
11	1434	9.227265629452	3
11	1439	9.227473629452	2
11	1509	9.327265629452	3
11	1514	9.327473629452	2
11	1622	10.027265629452	3
11	1628	10.027745629452	2
11	1851	10.727265629452	3
11	1857	10.727745629452	2
11	1992	11.027265629452	3
11	1998	11.027473629452	2
11	2132	11.327265629452	3
11	2138	11.327745629452	2
11	2272	11.627265629452	3
11	2278	11.627473629452	2
11	2412	11.927265629452	3
11	2418	11.927745629452	2
11	2537	12.027265629452	3
11	2543	12.027473629452	2
11	2661	12.127265629452	3
11	2667	12.127473629452	2
11	2785	12.227265629452	3
11	2791	12.227473629452	2
11	2909	12.327265629452	3
11	2915	12.327473629452	2
[...]
43	2198	11.380395910676	0
43	2221	11.390259847138	0
43	2221	11.390259847138	0
43	2228	11.390739847138	0
43	2228	11.390739847138	0
43	2276	11.627265804808	0
43	2276	11.627265804808	0
43	2289	11.627473804808	0
43	2289	11.627473804808	0
43	2306	11.671519256981	0
43	2306	11.671519256981	0
43	2319	11.671727256981	0
43	2319	11.671727256981	0
43	2333	11.679915910676	0
43	2333	11.679915910676	0
43	2338	11.680123910676	0
43	2338	11.680123910676	0
43	2362	11.690259847138	0
43	2362	11.690259847138	0
43	2368	11.690467847138	0
43	2368	11.690467847138	0
43	2416	11.927265804808	0
43	2416	11.927265804808	0
43	2429	11.927745804808	0
43	2429	11.927745804808	0
43	2446	11.971519256981	0
43	2446	11.971519256981	0
43	2459	11.971999256981	0
43	2459	11.971999256981	0
43	2473	11.979915910676	0
43	2473	11.979915910676	0
43	2478	11.980395910676	0
43	2478	11.980395910676	0
43	2501	11.990259847138	0
43	2501	11.990259847138	0
43	2508	11.990739847138	0
43	2508	11.990739847138	0
43	2541	12.027265833768	0
43	2541	12.027265833768	0
43	2554	12.027473833768	0
43	2554	12.027473833768	0
43	2571	12.071519290275	0
43	2571	12.071519290275	0
43	2584	12.071727290275	0
43	2584	12.071727290275	0
43	2598	12.079915926478	0
43	2598	12.079915926478	0
43	2603	12.080123926478	0
43	2603	12.080123926478	0
43	2627	12.090259847138	0
43	2627	12.090259847138	0
43	2633	12.090467847138	0
43	2633	12.090467847138	0
43	2665	12.127265833768	0
43	2665	12.127265833768	0
43	2678	12.127473833768	0
43	2678	12.127473833768	0
43	2695	12.171519290275	0
43	2695	12.171519290275	0
43	2708	12.171727290275	0
43	2708	12.171727290275	0
43	2722	12.179915926478	0
43	2722	12.179915926478	0
43	2727	12.180123926478	0
43	2727	12.180123926478	0
43	2751	12.190259847138	0
43	2751	12.190259847138	0
43	2757	12.190467847138	0
43	2757	12.190467847138	0
43	2789	12.227265833768	0
43	2789	12.227265833768	0
43	2802	12.227473833768	0
43	2802	12.227473833768	0
43	2819	12.271519290275	0
43	2819	12.271519290275	0
43	2832	12.271727290275	0
43	2832	12.271727290275	0
43	2846	12.279915926478	0
43	2846	12.279915926478	0
43	2851	12.280123926478	0
43	2851	12.280123926478	0
43	2875	12.290259847138	0
43	2875	12.290259847138	0
43	2881	12.290467847138	0
43	2881	12.290467847138	0
43	2913	12.327265833768	0
43	2913	12.327265833768	0
43	2926	12.327473833768	0
43	2926	12.327473833768	0
43	2943	12.371519290275	0
43	2943	12.371519290275	0
43	2956	12.371727290275	0
43	2956	12.371727290275	0
43	2970	12.379915926478	0
43	2970	12.379915926478	0
43	2975	12.380123926478	0
43	2975	12.380123926478	0
44	1610	10	0
44	1610	10	0
44	1626	10.027265770031	0
44	1626	10.027265770031	0
44	1639	10.027745770031	0
44	1639	10.027745770031	0
44	1656	10.071519216589	0
44	1656	10.071519216589	0
44	1669	10.071999216589	0
44	1669	10.071999216589	0
44	1683	10.079915892807	0
44	1683	10.079915892807	0
44	1688	10.080395892807	0
44	1688	10.080395892807	0
44	1715	10.190259847138	0
44	1715	10.190259847138	2
44	1716	10.190259847138	2
44	1716	10.190259847138	0
44	1719	10.190259847138	0
44	1719	10.190259847138	0
44	1725	10.190739847138	0
44	1725	10.190739847138	0
44	1760	10.390259847138	0
44	1760	10.390259847138	2
44	1761	10.390259847138	2
44	1761	10.390259847138	0
44	1764	10.390259847138	0
44	1764	10.390259847138	0
44	1770	10.390467847138	0
44	1770	10.390467847138	0
44	1805	10.590259847138	0
44	1805	10.590259847138	2
44	1806	10.590259847138	2
44	1806	10.590259847138	0
44	1809	10.590259847138	0
44	1809	10.590259847138	0
44	1815	10.590467847138	0
44	1815	10.590467847138	0
44	1855	10.727265770031	0
44	1855	10.727265770031	0
44	1868	10.727745770031	0
44	1868	10.727745770031	0
44	1885	10.771519216589	0
44	1885	10.771519216589	0
44	1898	10.771999216589	0
44	1898	10.771999216589	0
44	1912	10.779915892807	0
44	1912	10.779915892807	0
44	1917	10.780395892807	0
44	1917	10.780395892807	0
44	1936	10.790259847138	0
44	1936	10.790259847138	2
44	1937	10.790259847138	2
44	1937	10.790259847138	0
44	1940	10.790259847138	0
44	1940	10.790259847138	0
44	1947	10.790739847138	0
44	1947	10.790739847138	0
44	1996	11.027265804808	0
44	1996	11.027265804808	0
44	2009	11.027473804808	0
44	2009	11.027473804808	0
44	2026	11.071519256981	0
44	2026	11.071519256981	0
44	2039	11.071727256981	0
44	2039	11.071727256981	0
44	2053	11.079915910676	0
44	2053	11.079915910676	0
44	2058	11.080123910676	0
44	2058	11.080123910676	0
44	2078	11.090259847138	0
44	2078	11.090259847138	2
44	2079	11.090259847138	2
44	2079	11.090259847138	0
44	2082	11.090259847138	0
44	2082	11.090259847138	0
44	2088	11.090467847138	0
44	2088	11.090467847138	0
44	2136	11.327265804808	0
44	2136	11.327265804808	0
44	2149	11.327745804808	0
44	2149	11.327745804808	0
44	2166	11.371519256981	0
44	2166	11.371519256981	0
44	2179	11.371999256981	0
44	2179	11.371999256981	0
44	2193	11.379915910676	0
44	2193	11.379915910676	0
44	2198	11.380395910676	0
44	2198	11.380395910676	0
44	2217	11.390259847138	0
44	2217	11.390259847138	2
44	2218	11.390259847138	2
44	2218	11.390259847138	0
44	2221	11.390259847138	0
44	2221	11.390259847138	0
44	2228	11.390739847138	0
44	2228	11.390739847138	0
44	2276	11.627265804808	0
44	2276	11.627265804808	0
44	2289	11.627473804808	0
44	2289	11.627473804808	0
44	2306	11.671519256981	0
44	2306	11.671519256981	0
44	2319	11.671727256981	0
44	2319	11.671727256981	0
44	2333	11.679915910676	0
44	2333	11.679915910676	0
44	2338	11.680123910676	0
44	2338	11.680123910676	0
44	2358	11.690259847138	0
44	2358	11.690259847138	2
44	2359	11.690259847138	2
44	2359	11.690259847138	0
44	2362	11.690259847138	0
44	2362	11.690259847138	0
44	2368	11.690467847138	0
44	2368	11.690467847138	0
44	2416	11.927265804808	0
44	2416	11.927265804808	0
44	2429	11.927745804808	0
44	2429	11.927745804808	0
44	2446	11.971519256981	0
44	2446	11.971519256981	0
44	2459	11.971999256981	0
44	2459	11.971999256981	0
44	2473	11.979915910676	0
44	2473	11.979915910676	0
44	2478	11.980395910676	0
44	2478	11.980395910676	0
44	2497	11.990259847138	0
44	2497	11.990259847138	2
44	2498	11.990259847138	2
44	2498	11.990259847138	0
44	2501	11.990259847138	0
44	2501	11.990259847138	0
44	2508	11.990739847138	0
44	2508	11.990739847138	0
44	2541	12.027265833768	0
44	2541	12.027265833768	0
44	2554	12.027473833768	0
44	2554	12.027473833768	0
44	2571	12.071519290275	0
44	2571	12.071519290275	0
44	2584	12.071727290275	0
44	2584	12.071727290275	0
44	2598	12.079915926478	0
44	2598	12.079915926478	0
44	2603	12.080123926478	0
44	2603	12.080123926478	0
44	2623	12.090259847138	0
44	2623	12.090259847138	2
44	2624	12.090259847138	2
44	2624	12.090259847138	0
44	2627	12.090259847138	0
44	2627	12.090259847138	0
44	2633	12.090467847138	0
44	2633	12.090467847138	0
44	2665	12.127265833768	0
44	2665	12.127265833768	0
44	2678	12.127473833768	0
44	2678	12.127473833768	0
44	2695	12.171519290275	0
44	2695	12.171519290275	0
44	2708	12.171727290275	0
44	2708	12.171727290275	0
44	2722	12.179915926478	0
44	2722	12.179915926478	0
44	2727	12.180123926478	0
44	2727	12.180123926478	0
44	2747	12.190259847138	0
44	2747	12.190259847138	2
44	2748	12.190259847138	2
44	2748	12.190259847138	0
44	2751	12.190259847138	0
44	2751	12.190259847138	0
44	2757	12.190467847138	0
44	2757	12.190467847138	0
44	2789	12.227265833768	0
44	2789	12.227265833768	0
44	2802	12.227473833768	0
44	2802	12.227473833768	0
44	2819	12.271519290275	0
44	2819	12.271519290275	0
44	2832	12.271727290275	0
44	2832	12.271727290275	0
44	2846	12.279915926478	0
44	2846	12.279915926478	0
44	2851	12.280123926478	0
44	2851	12.280123926478	0
44	2871	12.290259847138	0
44	2871	12.290259847138	2
44	2872	12.290259847138	2
44	2872	12.290259847138	0
44	2875	12.290259847138	0
44	2875	12.290259847138	0
44	2881	12.290467847138	0
44	2881	12.290467847138	0
44	2913	12.327265833768	0
44	2913	12.327265833768	0
44	2926	12.327473833768	0
44	2926	12.327473833768	0
44	2943	12.371519290275	0
44	2943	12.371519290275	0
44	2956	12.371727290275	0
44	2956	12.371727290275	0
44	2970	12.379915926478	0
44	2970	12.379915926478	0
44	2975	12.380123926478	0
44	2975	12.380123926478	0
45	1610	10	0
45	1610	10	0
45	1626	10.027265770031	0
45	1626	10.027265770031	0
45	1639	10.027745770031	0
45	1639	10.027745770031	0
45	1656	10.071519216589	0
45	1656	10.071519216589	0
45	1669	10.071999216589	0
45	1669	10.071999216589	0
45	1683	10.079915892807	0
45	1683	10.079915892807	0
45	1688	10.080395892807	0
45	1688	10.080395892807	0
45	1719	10.190259847138	0
45	1719	10.190259847138	0
45	1725	10.190739847138	0
45	1725	10.190739847138	0
45	1764	10.390259847138	0
45	1764	10.390259847138	0
45	1770	10.390467847138	0
45	1770	10.390467847138	0
45	1809	10.590259847138	0
45	1809	10.590259847138	0
45	1815	10.590467847138	0
45	1815	10.590467847138	0
45	1855	10.727265770031	0
45	1855	10.727265770031	0
45	1868	10.727745770031	0
45	1868	10.727745770031	0
45	1885	10.771519216589	0
45	1885	10.771519216589	0
45	1898	10.771999216589	0
45	1898	10.771999216589	0
45	1912	10.779915892807	0
45	1912	10.779915892807	0
45	1917	10.780395892807	0
45	1917	10.780395892807	0
45	1940	10.790259847138	0
45	1940	10.790259847138	0
45	1947	10.790739847138	0
45	1947	10.790739847138	0
45	1996	11.027265804808	0
45	1996	11.027265804808	0
45	2009	11.027473804808	0
45	2009	11.027473804808	0
45	2026	11.071519256981	0
45	2026	11.071519256981	0
45	2039	11.071727256981	0
45	2039	11.071727256981	0
45	2053	11.079915910676	0
45	2053	11.079915910676	0
45	2058	11.080123910676	0
45	2058	11.080123910676	0
45	2082	11.090259847138	0
45	2082	11.090259847138	0
45	2088	11.090467847138	0
45	2088	11.090467847138	0
45	2136	11.327265804808	0
45	2136	11.327265804808	0
45	2149	11.327745804808	0
45	2149	11.327745804808	0
45	2166	11.371519256981	0
45	2166	11.371519256981	0
45	2179	11.371999256981	0
45	2179	11.371999256981	0
45	2193	11.379915910676	0
45	2193	11.379915910676	0
45	2198	11.380395910676	0
45	2198	11.380395910676	0
45	2221	11.390259847138	0
45	2221	11.390259847138	0
45	2228	11.390739847138	0
45	2228	11.390739847138	0
45	2276	11.627265804808	0
45	2276	11.627265804808	0
45	2289	11.627473804808	0
45	2289	11.627473804808	0
45	2306	11.671519256981	0
45	2306	11.671519256981	0
45	2319	11.671727256981	0
45	2319	11.671727256981	0
45	2333	11.679915910676	0
45	2333	11.679915910676	0
45	2338	11.680123910676	0
45	2338	11.680123910676	0
45	2362	11.690259847138	0
45	2362	11.690259847138	0
45	2368	11.690467847138	0
45	2368	11.690467847138	0
45	2416	11.927265804808	0
45	2416	11.927265804808	0
45	2429	11.927745804808	0
45	2429	11.927745804808	0
45	2446	11.971519256981	0
45	2446	11.971519256981	0
45	2459	11.971999256981	0
45	2459	11.971999256981	0
45	2473	11.979915910676	0
45	2473	11.979915910676	0
45	2478	11.980395910676	0
45	2478	11.980395910676	0
45	2501	11.990259847138	0
45	2501	11.990259847138	0
45	2508	11.990739847138	0
45	2508	11.990739847138	0
45	2541	12.027265833768	0
45	2541	12.027265833768	0
45	2554	12.027473833768	0
45	2554	12.027473833768	0
45	2571	12.071519290275	0
45	2571	12.071519290275	0
45	2584	12.071727290275	0
45	2584	12.071727290275	0
45	2598	12.079915926478	0
45	2598	12.079915926478	0
45	2603	12.080123926478	0
45	2603	12.080123926478	0
45	2627	12.090259847138	0
45	2627	12.090259847138	0
45	2633	12.090467847138	0
45	2633	12.090467847138	0
45	2665	12.127265833768	0
45	2665	12.127265833768	0
45	2678	12.127473833768	0
45	2678	12.127473833768	0
45	2695	12.171519290275	0
45	2695	12.171519290275	0
45	2708	12.171727290275	0
45	2708	12.171727290275	0
45	2722	12.179915926478	0
45	2722	12.179915926478	0
45	2727	12.180123926478	0
45	2727	12.180123926478	0
45	2751	12.190259847138	0
45	2751	12.190259847138	0
45	2757	12.190467847138	0
45	2757	12.190467847138	0
45	2789	12.227265833768	0
45	2789	12.227265833768	0
45	2802	12.227473833768	0
45	2802	12.227473833768	0
45	2819	12.271519290275	0
45	2819	12.271519290275	0
45	2832	12.271727290275	0
45	2832	12.271727290275	0
45	2846	12.279915926478	0
45	2846	12.279915926478	0
45	2851	12.280123926478	0
45	2851	12.280123926478	0
45	2875	12.290259847138	0
45	2875	12.290259847138	0
45	2881	12.290467847138	0
45	2881	12.290467847138	0
45	2913	12.327265833768	0
45	2913	12.327265833768	0
45	2926	12.327473833768	0
45	2926	12.327473833768	0
45	2943	12.371519290275	0
45	2943	12.371519290275	0
45	2956	12.371727290275	0
45	2956	12.371727290275	0
45	2970	12.379915926478	0
45	2970	12.379915926478	0
45	2975	12.380123926478	0
45	2975	12.380123926478	0
46	1610	10	0
46	1610	10	0
46	1626	10.027265770031	0
46	1626	10.027265770031	0
46	1639	10.027745770031	0
46	1639	10.027745770031	0
46	1656	10.071519216589	0
46	1656	10.071519216589	0
46	1669	10.071999216589	0
46	1669	10.071999216589	0
46	1683	10.079915892807	0
46	1683	10.079915892807	0
46	1688	10.080395892807	0
46	1688	10.080395892807	0
46	1719	10.190259847138	0
46	1719	10.190259847138	0
46	1725	10.190739847138	0
46	1725	10.190739847138	0
46	1764	10.390259847138	0
46	1764	10.390259847138	0
46	1770	10.390467847138	0
46	1770	10.390467847138	0
46	1809	10.590259847138	0
46	1809	10.590259847138	0
46	1815	10.590467847138	0
46	1815	10.590467847138	0
46	1855	10.727265770031	0
46	1855	10.727265770031	0
46	1868	10.727745770031	0
46	1868	10.727745770031	0
46	1885	10.771519216589	0
46	1885	10.771519216589	0
46	1898	10.771999216589	0
46	1898	10.771999216589	0
46	1912	10.779915892807	0
46	1912	10.779915892807	0
46	1917	10.780395892807	0
46	1917	10.780395892807	0
46	1940	10.790259847138	0
46	1940	10.790259847138	0
46	1947	10.790739847138	0
46	1947	10.790739847138	0
46	1996	11.027265804808	0
46	1996	11.027265804808	0
46	2009	11.027473804808	0
46	2009	11.027473804808	0
46	2026	11.071519256981	0
46	2026	11.071519256981	0
46	2039	11.071727256981	0
46	2039	11.071727256981	0
46	2053	11.079915910676	0
46	2053	11.079915910676	0
46	2058	11.080123910676	0
46	2058	11.080123910676	0
46	2082	11.090259847138	0
46	2082	11.090259847138	0
46	2088	11.090467847138	0
46	2088	11.090467847138	0
46	2136	11.327265804808	0
46	2136	11.327265804808	0
46	2149	11.327745804808	0
46	2149	11.327745804808	0
46	2166	11.371519256981	0
46	2166	11.371519256981	0
46	2179	11.371999256981	0
46	2179	11.371999256981	0
46	2193	11.379915910676	0
46	2193	11.379915910676	0
46	2198	11.380395910676	0
46	2198	11.380395910676	0
46	2221	11.390259847138	0
46	2221	11.390259847138	0
46	2228	11.390739847138	0
46	2228	11.390739847138	0
46	2276	11.627265804808	0
46	2276	11.627265804808	0
46	2289	11.627473804808	0
46	2289	11.627473804808	0
46	2306	11.671519256981	0
46	2306	11.671519256981	0
46	2319	11.671727256981	0
46	2319	11.671727256981	0
46	2333	11.679915910676	0
46	2333	11.679915910676	0
46	2338	11.680123910676	0
46	2338	11.680123910676	0
46	2362	11.690259847138	0
46	2362	11.690259847138	0
46	2368	11.690467847138	0
46	2368	11.690467847138	0
46	2416	11.927265804808	0
46	2416	11.927265804808	0
46	2429	11.927745804808	0
46	2429	11.927745804808	0
46	2446	11.971519256981	0
46	2446	11.971519256981	0
46	2459	11.971999256981	0
46	2459	11.971999256981	0
46	2473	11.979915910676	0
46	2473	11.979915910676	0
46	2478	11.980395910676	0
46	2478	11.980395910676	0
46	2501	11.990259847138	0
46	2501	11.990259847138	0
46	2508	11.990739847138	0
46	2508	11.990739847138	0
46	2541	12.027265833768	0
46	2541	12.027265833768	0
46	2554	12.027473833768	0
46	2554	12.027473833768	0
46	2571	12.071519290275	0
46	2571	12.071519290275	0
46	2584	12.071727290275	0
46	2584	12.071727290275	0
46	2598	12.079915926478	0
46	2598	12.079915926478	0
46	2603	12.080123926478	0
46	2603	12.080123926478	0
46	2627	12.090259847138	0
46	2627	12.090259847138	0
46	2633	12.090467847138	0
46	2633	12.090467847138	0
46	2665	12.127265833768	0
46	2665	12.127265833768	0
46	2678	12.127473833768	0
46	2678	12.127473833768	0
46	2695	12.171519290275	0
46	2695	12.171519290275	0
46	2708	12.171727290275	0
46	2708	12.171727290275	0
46	2722	12.179915926478	0
46	2722	12.179915926478	0
46	2727	12.180123926478	0
46	2727	12.180123926478	0
46	2751	12.190259847138	0
46	2751	12.190259847138	0
46	2757	12.190467847138	0
46	2757	12.190467847138	0
46	2789	12.227265833768	0
46	2789	12.227265833768	0
46	2802	12.227473833768	0
46	2802	12.227473833768	0
46	2819	12.271519290275	0
46	2819	12.271519290275	0
46	2832	12.271727290275	0
46	2832	12.271727290275	0
46	2846	12.279915926478	0
46	2846	12.279915926478	0
46	2851	12.280123926478	0
46	2851	12.280123926478	0
46	2875	12.290259847138	0
46	2875	12.290259847138	0
46	2881	12.290467847138	0
46	2881	12.290467847138	0
46	2913	12.327265833768	0
46	2913	12.327265833768	0
46	2926	12.327473833768	0
46	2926	12.327473833768	0
46	2943	12.371519290275	0
46	2943	12.371519290275	0
46	2956	12.371727290275	0
46	2956	12.371727290275	0
46	2970	12.379915926478	0
46	2970	12.379915926478	0
46	2975	12.380123926478	0
46	2975	12.380123926478	0
47	1640	10.027745770031	323
47	1670	10.071999216589	323
47	1689	10.080395892807	323
47	1869	10.727745770031	323
47	1899	10.771999216589	323
47	1918	10.780395892807	323
47	2010	11.027473804808	123
47	2040	11.071727256981	123
47	2059	11.080123910676	123
47	2150	11.327745804808	323
47	2180	11.371999256981	323
47	2199	11.380395910676	323
47	2290	11.627473804808	123
47	2320	11.671727256981	123
47	2339	11.680123910676	123
47	2430	11.927745804808	323
47	2460	11.971999256981	323
47	2479	11.980395910676	323
47	2555	12.027473833768	123
47	2585	12.071727290275	123
47	2604	12.080123926478	123
47	2679	12.127473833768	123
47	2709	12.171727290275	123
47	2728	12.180123926478	123
47	2803	12.227473833768	123
47	2833	12.271727290275	123
47	2852	12.280123926478	123
47	2927	12.327473833768	123
47	2957	12.371727290275	123
47	2976	12.380123926478	123
48	1640	10.027745770031	323
48	1670	10.071999216589	323
48	1689	10.080395892807	323
48	1869	10.727745770031	323
48	1899	10.771999216589	323
48	1918	10.780395892807	323
48	2010	11.027473804808	123
48	2040	11.071727256981	123
48	2059	11.080123910676	123
48	2150	11.327745804808	323
48	2180	11.371999256981	323
48	2199	11.380395910676	323
48	2290	11.627473804808	123
48	2320	11.671727256981	123
48	2339	11.680123910676	123
48	2430	11.927745804808	323
48	2460	11.971999256981	323
48	2479	11.980395910676	323
48	2555	12.027473833768	123
48	2585	12.071727290275	123
48	2604	12.080123926478	123
48	2679	12.127473833768	123
48	2709	12.171727290275	123
48	2728	12.180123926478	123
48	2803	12.227473833768	123
48	2833	12.271727290275	123
48	2852	12.280123926478	123
48	2927	12.327473833768	123
48	2957	12.371727290275	123
48	2976	12.380123926478	123
49	1715	10.190259847138	323
49	1760	10.390259847138	123
49	1805	10.590259847138	123
49	1936	10.790259847138	323
49	2078	11.090259847138	123
49	2217	11.390259847138	323
49	2358	11.690259847138	123
49	2497	11.990259847138	323
49	2623	12.090259847138	123
49	2747	12.190259847138	123
49	2871	12.290259847138	123
50	1718	10.190259847138	323
50	1763	10.390259847138	123
50	1808	10.590259847138	123
50	1939	10.790259847138	323
50	2081	11.090259847138	123
50	2220	11.390259847138	323
50	2361	11.690259847138	123
50	2500	11.990259847138	323
50	2626	12.090259847138	123
50	2750	12.190259847138	123
50	2874	12.290259847138	123
51	1719	10.190259847138	1
51	1720	10.190259847138	2
51	1724	10.190739847138	1
51	1725	10.190739847138	0
51	1764	10.390259847138	1
51	1765	10.390259847138	2
51	1769	10.390467847138	1
51	1770	10.390467847138	0
51	1809	10.590259847138	1
51	1810	10.590259847138	2
51	1814	10.590467847138	1
51	1815	10.590467847138	0
51	1940	10.790259847138	1
51	1941	10.790259847138	2
51	1946	10.790739847138	1
51	1947	10.790739847138	0
51	2082	11.090259847138	1
51	2083	11.090259847138	2
51	2087	11.090467847138	1
51	2088	11.090467847138	0
51	2221	11.390259847138	1
51	2222	11.390259847138	2
51	2227	11.390739847138	1
51	2228	11.390739847138	0
51	2362	11.690259847138	1
51	2363	11.690259847138	2
51	2367	11.690467847138	1
51	2368	11.690467847138	0
51	2501	11.990259847138	1
51	2502	11.990259847138	2
51	2507	11.990739847138	1
51	2508	11.990739847138	0
51	2627	12.090259847138	1
51	2628	12.090259847138	2
51	2632	12.090467847138	1
51	2633	12.090467847138	0
51	2751	12.190259847138	1
51	2752	12.190259847138	2
51	2756	12.190467847138	1
51	2757	12.190467847138	0
51	2875	12.290259847138	1
51	2876	12.290259847138	2
51	2880	12.290467847138	1
51	2881	12.290467847138	0

